# generated using pymatgen
data_Cd108Cu2(Te3Se)27
_symmetry_space_group_name_H-M   'P 1'
_cell_length_a   19.56885388
_cell_length_b   19.56453553
_cell_length_c   19.56721656
_cell_angle_alpha   90.00225732
_cell_angle_beta   89.99767949
_cell_angle_gamma   90.00013634
_symmetry_Int_Tables_number   1
_chemical_formula_structural   Cd108Cu2(Te3Se)27
_chemical_formula_sum   'Cd108 Cu2 Te81 Se27'
_cell_volume   7491.41719102
_cell_formula_units_Z   1
loop_
 _symmetry_equiv_pos_site_id
 _symmetry_equiv_pos_as_xyz
  1  'x, y, z'
loop_
 _atom_site_type_symbol
 _atom_site_label
 _atom_site_symmetry_multiplicity
 _atom_site_fract_x
 _atom_site_fract_y
 _atom_site_fract_z
 _atom_site_occupancy
  Cd  Cd0  1  0.99531120  0.99538530  0.00303770  1
  Cd  Cd1  1  0.99863893  0.00082447  0.33424708  1
  Cd  Cd2  1  0.00331958  0.99446732  0.66435289  1
  Cd  Cd3  1  0.99428456  0.33749890  0.99637550  1
  Cd  Cd4  1  0.99997553  0.33446491  0.33409413  1
  Cd  Cd5  1  0.99987997  0.33305160  0.65882088  1
  Cd  Cd6  1  0.99163720  0.66720190  0.99925204  1
  Cd  Cd7  1  0.99945596  0.66596612  0.33340327  1
  Cd  Cd8  1  0.99936348  0.67213869  0.66761893  1
  Cd  Cd9  1  0.33471357  0.00060372  0.00091397  1
  Cd  Cd10  1  0.33692416  0.99623715  0.33037608  1
  Cd  Cd11  1  0.32817172  0.00475858  0.66329016  1
  Cd  Cd12  1  0.33909024  0.33742557  0.00470021  1
  Cd  Cd13  1  0.33378163  0.33271307  0.32631941  1
  Cd  Cd14  1  0.33057798  0.33810188  0.66338976  1
  Cd  Cd15  1  0.33492012  0.66572259  0.99955883  1
  Cd  Cd16  1  0.33388629  0.66512579  0.33258671  1
  Cd  Cd17  1  0.33312840  0.66694625  0.66738302  1
  Cd  Cd18  1  0.67100598  0.00349214  0.99752242  1
  Cd  Cd19  1  0.66626300  0.00125874  0.33173761  1
  Cd  Cd20  1  0.66731184  0.99830888  0.66713610  1
  Cd  Cd21  1  0.65918546  0.33415533  0.99966623  1
  Cd  Cd22  1  0.67408989  0.33399160  0.33177459  1
  Cd  Cd23  1  0.67204188  0.33712934  0.67301631  1
  Cd  Cd24  1  0.66076581  0.66555845  0.99939221  1
  Cd  Cd25  1  0.67124469  0.67106831  0.33606558  1
  Cd  Cd26  1  0.66417466  0.66073490  0.67225841  1
  Cd  Cd27  1  0.99958334  0.16795274  0.16659145  1
  Cd  Cd28  1  0.00385312  0.17219773  0.50326763  1
  Cd  Cd29  1  0.99816858  0.16614632  0.83245869  1
  Cd  Cd30  1  0.99482159  0.50414509  0.16238677  1
  Cd  Cd31  1  0.99515076  0.49740944  0.50447520  1
  Cd  Cd32  1  0.99585014  0.49635481  0.83611422  1
  Cd  Cd33  1  0.99433294  0.83782763  0.16245902  1
  Cd  Cd34  1  0.99984324  0.83406582  0.50813425  1
  Cd  Cd35  1  0.99921669  0.82491901  0.83368425  1
  Cd  Cd36  1  0.33791671  0.17069078  0.17015172  1
  Cd  Cd37  1  0.32886119  0.16186605  0.50240162  1
  Cd  Cd38  1  0.33428763  0.16901725  0.83370589  1
  Cd  Cd39  1  0.33493227  0.49113442  0.16591756  1
  Cd  Cd40  1  0.32915759  0.49508290  0.50393933  1
  Cd  Cd41  1  0.33447723  0.50126103  0.83391250  1
  Cd  Cd42  1  0.33873188  0.83654662  0.16991667  1
  Cd  Cd43  1  0.33230438  0.83307479  0.50007516  1
  Cd  Cd44  1  0.33403108  0.83402606  0.83250958  1
  Cd  Cd45  1  0.66944531  0.17054681  0.16190481  1
  Cd  Cd46  1  0.66672600  0.16843619  0.49995414  1
  Cd  Cd47  1  0.66332448  0.16362197  0.83794962  1
  Cd  Cd48  1  0.66303808  0.50387378  0.16233502  1
  Cd  Cd49  1  0.67173569  0.49581781  0.49615385  1
  Cd  Cd50  1  0.66482133  0.49642112  0.83171388  1
  Cd  Cd51  1  0.66758468  0.83302349  0.16489147  1
  Cd  Cd52  1  0.67063551  0.82899269  0.49582492  1
  Cd  Cd53  1  0.66872634  0.83288446  0.84228305  1
  Cd  Cd54  1  0.16695351  0.00094027  0.16678155  1
  Cd  Cd55  1  0.16590182  0.99896012  0.50731517  1
  Cd  Cd56  1  0.16542981  0.99992747  0.83334493  1
  Cd  Cd57  1  0.16996876  0.33740928  0.16987761  1
  Cd  Cd58  1  0.16645954  0.33291187  0.50670963  1
  Cd  Cd59  1  0.16642908  0.33336148  0.83229009  1
  Cd  Cd60  1  0.16625367  0.66702425  0.16649494  1
  Cd  Cd61  1  0.16570390  0.66526330  0.49984034  1
  Cd  Cd62  1  0.15997873  0.66997623  0.82812907  1
  Cd  Cd63  1  0.49807241  0.99625290  0.16908269  1
  Cd  Cd64  1  0.50037868  0.00024678  0.49887418  1
  Cd  Cd65  1  0.50469985  0.00481460  0.83823441  1
  Cd  Cd66  1  0.49825522  0.32885668  0.16250951  1
  Cd  Cd67  1  0.50024850  0.33332600  0.50005402  1
  Cd  Cd68  1  0.50399129  0.33824373  0.83851402  1
  Cd  Cd69  1  0.50450626  0.66114393  0.16207360  1
  Cd  Cd70  1  0.50012720  0.66600907  0.49963171  1
  Cd  Cd71  1  0.50888401  0.66588959  0.83455084  1
  Cd  Cd72  1  0.83198145  0.00045913  0.15797293  1
  Cd  Cd73  1  0.83388212  0.00069803  0.49985397  1
  Cd  Cd74  1  0.82989936  0.99404474  0.83657880  1
  Cd  Cd75  1  0.82778835  0.33051258  0.17012961  1
  Cd  Cd76  1  0.83385073  0.34138790  0.49976404  1
  Cd  Cd77  1  0.83143744  0.34092169  0.83464592  1
  Cd  Cd78  1  0.83586751  0.66222718  0.16164409  1
  Cd  Cd79  1  0.83418632  0.67332942  0.50197824  1
  Cd  Cd80  1  0.83579418  0.66957667  0.83804300  1
  Cd  Cd81  1  0.16687214  0.16781244  0.00150525  1
  Cd  Cd82  1  0.16766217  0.16607029  0.33491856  1
  Cd  Cd83  1  0.16593796  0.16693625  0.65964875  1
  Cd  Cd84  1  0.16564232  0.50117692  0.99881611  1
  Cd  Cd85  1  0.17062850  0.49478213  0.32991948  1
  Cd  Cd86  1  0.16974384  0.49658084  0.66337972  1
  Cd  Cd87  1  0.16632724  0.83271531  0.00004198  1
  Cd  Cd88  1  0.16552294  0.83359989  0.33446911  1
  Cd  Cd89  1  0.15794469  0.83340114  0.66722802  1
  Cd  Cd90  1  0.50926203  0.16665344  0.00083435  1
  Cd  Cd91  1  0.49617235  0.17194812  0.32860031  1
  Cd  Cd92  1  0.50026051  0.16873327  0.66762543  1
  Cd  Cd93  1  0.50397311  0.49536927  0.00397008  1
  Cd  Cd94  1  0.50125939  0.49852819  0.33215700  1
  Cd  Cd95  1  0.50480533  0.50492564  0.67139482  1
  Cd  Cd96  1  0.50539096  0.82891265  0.99566635  1
  Cd  Cd97  1  0.49707910  0.83636598  0.32803142  1
  Cd  Cd98  1  0.50083093  0.83426885  0.66750378  1
  Cd  Cd99  1  0.82826351  0.16310675  0.00354473  1
  Cd  Cd100  1  0.82934863  0.17164260  0.32856145  1
  Cd  Cd101  1  0.83346454  0.16679789  0.66793793  1
  Cd  Cd102  1  0.83799918  0.49911960  0.99971503  1
  Cd  Cd103  1  0.82890971  0.49650890  0.33663066  1
  Cd  Cd104  1  0.83382379  0.49385772  0.66770384  1
  Cd  Cd105  1  0.83566803  0.83624241  0.99548079  1
  Cd  Cd106  1  0.82955944  0.82898842  0.33656962  1
  Cd  Cd107  1  0.83713544  0.82858666  0.66369397  1
  Se  Se108  1  0.07977894  0.75114183  0.74875576  1
  Se  Se109  1  0.42064586  0.41558831  0.08450515  1
  Se  Se110  1  0.74789006  0.08370386  0.08263975  1
  Se  Se111  1  0.75014464  0.41481778  0.41608974  1
  Se  Se112  1  0.75035123  0.41868266  0.75188937  1
  Se  Se113  1  0.75179934  0.74921764  0.41818810  1
  Se  Se114  1  0.08431973  0.25125943  0.58288279  1
  Se  Se115  1  0.08332179  0.91530915  0.58418622  1
  Se  Se116  1  0.41743786  0.25293992  0.24775968  1
  Se  Se117  1  0.41730872  0.91729421  0.24975538  1
  Se  Se118  1  0.74781867  0.24962105  0.24822647  1
  Se  Se119  1  0.75005256  0.91658642  0.91980801  1
  Se  Se120  1  0.24698055  0.08367696  0.58320378  1
  Se  Se121  1  0.25273790  0.41541227  0.24904950  1
  Se  Se122  1  0.24840329  0.41556522  0.58350822  1
  Se  Se123  1  0.58624573  0.08352561  0.91927691  1
  Se  Se124  1  0.58367781  0.41847005  0.91796461  1
  Se  Se125  1  0.58588452  0.74839729  0.91652359  1
  Se  Se126  1  0.91567150  0.41598472  0.58391081  1
  Se  Se127  1  0.91420033  0.41793273  0.91642433  1
  Se  Se128  1  0.91803111  0.75033090  0.58393204  1
  Se  Se129  1  0.91577339  0.75096222  0.91769950  1
  Se  Se130  1  0.58450135  0.25035789  0.08323584  1
  Se  Se131  1  0.58297719  0.58229904  0.08026599  1
  Se  Se132  1  0.58515557  0.58125205  0.75334798  1
  Se  Se133  1  0.91575168  0.58291549  0.08018788  1
  Se  Se134  1  0.91279640  0.91655872  0.08070038  1
  Te  Te135  1  0.08205478  0.08236392  0.08270735  1
  Te  Te136  1  0.08378872  0.08311610  0.42030537  1
  Te  Te137  1  0.08350223  0.08382910  0.74677528  1
  Te  Te138  1  0.08105954  0.41741255  0.08328141  1
  Te  Te139  1  0.08404018  0.41664925  0.41957805  1
  Te  Te140  1  0.08140342  0.41594581  0.74726445  1
  Te  Te141  1  0.07961186  0.74990814  0.08255559  1
  Te  Te142  1  0.08142974  0.75105120  0.41917637  1
  Te  Te143  1  0.41956794  0.08517833  0.08423470  1
  Te  Te144  1  0.41644610  0.08437464  0.41481433  1
  Te  Te145  1  0.41700304  0.08330441  0.75024987  1
  Te  Te146  1  0.41486018  0.41560312  0.41594739  1
  Te  Te147  1  0.41865741  0.41771967  0.74977490  1
  Te  Te148  1  0.41964525  0.75002394  0.08340341  1
  Te  Te149  1  0.41709714  0.75062640  0.41554613  1
  Te  Te150  1  0.42001818  0.74806063  0.75175318  1
  Te  Te151  1  0.75047843  0.08524619  0.41539631  1
  Te  Te152  1  0.74970782  0.08212435  0.75253627  1
  Te  Te153  1  0.74838360  0.41672727  0.08233691  1
  Te  Te154  1  0.75129801  0.74906645  0.07897682  1
  Te  Te155  1  0.75004917  0.74992928  0.75191686  1
  Te  Te156  1  0.08436657  0.25076795  0.25008654  1
  Te  Te157  1  0.08124506  0.25078871  0.91689852  1
  Te  Te158  1  0.08332928  0.58133794  0.24947513  1
  Te  Te159  1  0.08156250  0.58332449  0.58473807  1
  Te  Te160  1  0.07940504  0.58493494  0.91618126  1
  Te  Te161  1  0.08153243  0.91701446  0.24881099  1
  Te  Te162  1  0.08055147  0.91450324  0.91625837  1
  Te  Te163  1  0.41436861  0.24968412  0.58281991  1
  Te  Te164  1  0.42073759  0.25061553  0.91962445  1
  Te  Te165  1  0.41685657  0.58069765  0.24738413  1
  Te  Te166  1  0.41639056  0.58097372  0.58384006  1
  Te  Te167  1  0.42217101  0.58247458  0.91814025  1
  Te  Te168  1  0.41599305  0.91818317  0.58385773  1
  Te  Te169  1  0.41932968  0.91669329  0.91703913  1
  Te  Te170  1  0.75160597  0.25326396  0.58327565  1
  Te  Te171  1  0.74795674  0.25173110  0.91781992  1
  Te  Te172  1  0.74982718  0.58321911  0.24911356  1
  Te  Te173  1  0.75156833  0.58233278  0.58372401  1
  Te  Te174  1  0.74888036  0.58169881  0.91696988  1
  Te  Te175  1  0.75171417  0.91710283  0.24863231  1
  Te  Te176  1  0.75102924  0.91435372  0.58204599  1
  Te  Te177  1  0.25267010  0.08411947  0.25007018  1
  Te  Te178  1  0.25012501  0.08421840  0.91693151  1
  Te  Te179  1  0.25098483  0.41619207  0.91757528  1
  Te  Te180  1  0.25108279  0.75126567  0.24992377  1
  Te  Te181  1  0.24703061  0.75057167  0.58479198  1
  Te  Te182  1  0.24859769  0.74862518  0.91501878  1
  Te  Te183  1  0.58303750  0.08629628  0.24677379  1
  Te  Te184  1  0.58373586  0.08393942  0.58412462  1
  Te  Te185  1  0.58380690  0.41398841  0.24696419  1
  Te  Te186  1  0.58576093  0.41805098  0.58460579  1
  Te  Te187  1  0.58389446  0.74914264  0.24925652  1
  Te  Te188  1  0.58536192  0.74842110  0.58428977  1
  Te  Te189  1  0.91390884  0.08323381  0.24791650  1
  Te  Te190  1  0.91917899  0.08358924  0.58414852  1
  Te  Te191  1  0.91380378  0.08139653  0.91761126  1
  Te  Te192  1  0.91460404  0.41751936  0.24966828  1
  Te  Te193  1  0.91514079  0.74922230  0.24835427  1
  Te  Te194  1  0.25218919  0.25270223  0.08498736  1
  Te  Te195  1  0.25077137  0.25153215  0.41774500  1
  Te  Te196  1  0.24948155  0.25022785  0.74652558  1
  Te  Te197  1  0.25142435  0.58093264  0.08440806  1
  Te  Te198  1  0.25024757  0.58056422  0.41649382  1
  Te  Te199  1  0.24844873  0.58344363  0.74989611  1
  Te  Te200  1  0.25183894  0.91580110  0.08441348  1
  Te  Te201  1  0.24938284  0.91846637  0.41767151  1
  Te  Te202  1  0.24762247  0.91625611  0.74768222  1
  Te  Te203  1  0.58459228  0.25204484  0.41381606  1
  Te  Te204  1  0.58478371  0.25190017  0.75249806  1
  Te  Te205  1  0.58627254  0.58274218  0.41617526  1
  Te  Te206  1  0.58537214  0.91793162  0.08053403  1
  Te  Te207  1  0.58359927  0.91519198  0.41479972  1
  Te  Te208  1  0.58507551  0.91634873  0.75470736  1
  Te  Te209  1  0.91360915  0.25079993  0.08303104  1
  Te  Te210  1  0.91487816  0.25196116  0.41734098  1
  Te  Te211  1  0.91583616  0.25427229  0.74982765  1
  Te  Te212  1  0.91385685  0.58326984  0.41892016  1
  Te  Te213  1  0.91595067  0.58344970  0.75033010  1
  Te  Te214  1  0.91692954  0.91398840  0.41853265  1
  Te  Te215  1  0.91764568  0.91338012  0.75054818  1
  Cu  Cu216  1  0.49988602  0.50011115  0.49967361  1
  Cu  Cu217  1  0.63294367  0.29965857  0.56582674  1
