# generated using pymatgen
data_Cd4Te3Se
_symmetry_space_group_name_H-M   'P 1'
_cell_length_a   19.56885388
_cell_length_b   19.56453553
_cell_length_c   19.56721656
_cell_angle_alpha   90.00225732
_cell_angle_beta   89.99767949
_cell_angle_gamma   90.00013634
_symmetry_Int_Tables_number   1
_chemical_formula_structural   Cd4Te3Se
_chemical_formula_sum   'Cd108 Te81 Se27'
_cell_volume   7491.41719102
_cell_formula_units_Z   27
loop_
 _symmetry_equiv_pos_site_id
 _symmetry_equiv_pos_as_xyz
  1  'x, y, z'
loop_
 _atom_site_type_symbol
 _atom_site_label
 _atom_site_symmetry_multiplicity
 _atom_site_fract_x
 _atom_site_fract_y
 _atom_site_fract_z
 _atom_site_occupancy
  Cd  Cd0  1  0.99519930  0.99537332  0.00309030  1
  Cd  Cd1  1  0.99858331  0.00048227  0.33427979  1
  Cd  Cd2  1  0.00309625  0.99470160  0.66403599  1
  Cd  Cd3  1  0.99427920  0.33744333  0.99636563  1
  Cd  Cd4  1  0.99997851  0.33425675  0.33375776  1
  Cd  Cd5  1  0.99990440  0.33287354  0.65904564  1
  Cd  Cd6  1  0.99144538  0.66707361  0.99925350  1
  Cd  Cd7  1  0.99950193  0.66604870  0.33374830  1
  Cd  Cd8  1  0.99911987  0.67216813  0.66723565  1
  Cd  Cd9  1  0.33485018  0.00075537  0.00087331  1
  Cd  Cd10  1  0.33698867  0.99637093  0.33011905  1
  Cd  Cd11  1  0.32839931  0.00453401  0.66350888  1
  Cd  Cd12  1  0.33915098  0.33739357  0.00446751  1
  Cd  Cd13  1  0.33366125  0.33254756  0.32635250  1
  Cd  Cd14  1  0.33056690  0.33814106  0.66338175  1
  Cd  Cd15  1  0.33460390  0.66601736  0.99974071  1
  Cd  Cd16  1  0.33396338  0.66506600  0.33275214  1
  Cd  Cd17  1  0.33330198  0.66692229  0.66700462  1
  Cd  Cd18  1  0.67097576  0.00366361  0.99733645  1
  Cd  Cd19  1  0.66625503  0.00125585  0.33174535  1
  Cd  Cd20  1  0.66744196  0.99836191  0.66725104  1
  Cd  Cd21  1  0.65928137  0.33407718  0.99991003  1
  Cd  Cd22  1  0.67374528  0.33390093  0.33171647  1
  Cd  Cd23  1  0.67163175  0.33703094  0.67195441  1
  Cd  Cd24  1  0.66070556  0.66549847  0.99942197  1
  Cd  Cd25  1  0.67139212  0.67095898  0.33638279  1
  Cd  Cd26  1  0.66447139  0.66106357  0.67215205  1
  Cd  Cd27  1  0.99974937  0.16787297  0.16612882  1
  Cd  Cd28  1  0.00340415  0.17209649  0.50341809  1
  Cd  Cd29  1  0.99839586  0.16609205  0.83264445  1
  Cd  Cd30  1  0.99466195  0.50414781  0.16212456  1
  Cd  Cd31  1  0.99516165  0.49724256  0.50453610  1
  Cd  Cd32  1  0.99592825  0.49648982  0.83562900  1
  Cd  Cd33  1  0.99413465  0.83770843  0.16249912  1
  Cd  Cd34  1  0.99978607  0.83376998  0.50842886  1
  Cd  Cd35  1  0.99914298  0.82483293  0.83370235  1
  Cd  Cd36  1  0.33813868  0.17088533  0.16999530  1
  Cd  Cd37  1  0.32866700  0.16213181  0.50233724  1
  Cd  Cd38  1  0.33453512  0.16898864  0.83334514  1
  Cd  Cd39  1  0.33496095  0.49119539  0.16601961  1
  Cd  Cd40  1  0.32946549  0.49473908  0.50390887  1
  Cd  Cd41  1  0.33452302  0.50128070  0.83390183  1
  Cd  Cd42  1  0.33868489  0.83646749  0.16988194  1
  Cd  Cd43  1  0.33231799  0.83286923  0.50033714  1
  Cd  Cd44  1  0.33399037  0.83406699  0.83252399  1
  Cd  Cd45  1  0.66917325  0.17055263  0.16174435  1
  Cd  Cd46  1  0.66670564  0.16827044  0.50002136  1
  Cd  Cd47  1  0.66331378  0.16360111  0.83792819  1
  Cd  Cd48  1  0.66278934  0.50399565  0.16220172  1
  Cd  Cd49  1  0.67148431  0.49603518  0.49631258  1
  Cd  Cd50  1  0.66494595  0.49654736  0.83163211  1
  Cd  Cd51  1  0.66774892  0.83291062  0.16501904  1
  Cd  Cd52  1  0.67044992  0.82897672  0.49607447  1
  Cd  Cd53  1  0.66851007  0.83303758  0.84196792  1
  Cd  Cd54  1  0.16734263  0.00090857  0.16688444  1
  Cd  Cd55  1  0.16621215  0.99920022  0.50757069  1
  Cd  Cd56  1  0.16545525  0.99989942  0.83333410  1
  Cd  Cd57  1  0.16996000  0.33785600  0.16985792  1
  Cd  Cd58  1  0.16652606  0.33300180  0.50627080  1
  Cd  Cd59  1  0.16627406  0.33318438  0.83217931  1
  Cd  Cd60  1  0.16609684  0.66695099  0.16606298  1
  Cd  Cd61  1  0.16596328  0.66515145  0.49965291  1
  Cd  Cd62  1  0.16044353  0.67002589  0.82800691  1
  Cd  Cd63  1  0.49787524  0.99637697  0.16874239  1
  Cd  Cd64  1  0.50061510  0.00031627  0.49884657  1
  Cd  Cd65  1  0.50477149  0.00473445  0.83812750  1
  Cd  Cd66  1  0.49795032  0.32898910  0.16253320  1
  Cd  Cd67  1  0.50052132  0.33361315  0.50013960  1
  Cd  Cd68  1  0.50398132  0.33819969  0.83843632  1
  Cd  Cd69  1  0.50457623  0.66127676  0.16209128  1
  Cd  Cd70  1  0.50048339  0.66585199  0.49991833  1
  Cd  Cd71  1  0.50894642  0.66591446  0.83447991  1
  Cd  Cd72  1  0.83232599  0.00028459  0.15808678  1
  Cd  Cd73  1  0.83405549  0.00092155  0.49968794  1
  Cd  Cd74  1  0.82946669  0.99388725  0.83671411  1
  Cd  Cd75  1  0.82787980  0.33046297  0.17016830  1
  Cd  Cd76  1  0.83386129  0.34099914  0.49998857  1
  Cd  Cd77  1  0.83161425  0.34066837  0.83427906  1
  Cd  Cd78  1  0.83588933  0.66215500  0.16150786  1
  Cd  Cd79  1  0.83422477  0.67333154  0.50197996  1
  Cd  Cd80  1  0.83583458  0.66963219  0.83810325  1
  Cd  Cd81  1  0.16682407  0.16807613  0.00127579  1
  Cd  Cd82  1  0.16733326  0.16619240  0.33499252  1
  Cd  Cd83  1  0.16588858  0.16739945  0.65949427  1
  Cd  Cd84  1  0.16540480  0.50107418  0.99922652  1
  Cd  Cd85  1  0.17050262  0.49468173  0.32964558  1
  Cd  Cd86  1  0.16941311  0.49655620  0.66329338  1
  Cd  Cd87  1  0.16630464  0.83283280  0.00014036  1
  Cd  Cd88  1  0.16562046  0.83359477  0.33415137  1
  Cd  Cd89  1  0.15784037  0.83325476  0.66733643  1
  Cd  Cd90  1  0.50938201  0.16648265  0.00124309  1
  Cd  Cd91  1  0.49640915  0.17197235  0.32836300  1
  Cd  Cd92  1  0.49992491  0.16897476  0.66778311  1
  Cd  Cd93  1  0.50395030  0.49545723  0.00371695  1
  Cd  Cd94  1  0.50116699  0.49893040  0.33261149  1
  Cd  Cd95  1  0.50480578  0.50466168  0.67101533  1
  Cd  Cd96  1  0.50537833  0.82891008  0.99565847  1
  Cd  Cd97  1  0.49682725  0.83646055  0.32828551  1
  Cd  Cd98  1  0.50082944  0.83425787  0.66751842  1
  Cd  Cd99  1  0.82819090  0.16351916  0.00346180  1
  Cd  Cd100  1  0.82947349  0.17144779  0.32856306  1
  Cd  Cd101  1  0.83330729  0.16692595  0.66777215  1
  Cd  Cd102  1  0.83799766  0.49951757  0.99980210  1
  Cd  Cd103  1  0.82862582  0.49677538  0.33695752  1
  Cd  Cd104  1  0.83361530  0.49407364  0.66742077  1
  Cd  Cd105  1  0.83573042  0.83639805  0.99548620  1
  Cd  Cd106  1  0.82975290  0.82931724  0.33648099  1
  Cd  Cd107  1  0.83693875  0.82856281  0.66378635  1
  Se  Se108  1  0.07998849  0.75079611  0.74848704  1
  Se  Se109  1  0.42058461  0.41542137  0.08468256  1
  Se  Se110  1  0.74804465  0.08359476  0.08264541  1
  Se  Se111  1  0.75069109  0.41486947  0.41614851  1
  Se  Se112  1  0.75039989  0.41870065  0.75191165  1
  Se  Se113  1  0.75191927  0.74928336  0.41819777  1
  Se  Se114  1  0.08440531  0.25154351  0.58314269  1
  Se  Se115  1  0.08330393  0.91535736  0.58427044  1
  Se  Se116  1  0.41707191  0.25306316  0.24775586  1
  Se  Se117  1  0.41745916  0.91728589  0.24956751  1
  Se  Se118  1  0.74784061  0.24961679  0.24820629  1
  Se  Se119  1  0.74975435  0.91649321  0.91960942  1
  Se  Se120  1  0.24711130  0.08358509  0.58319478  1
  Se  Se121  1  0.25252949  0.41532499  0.24898513  1
  Se  Se122  1  0.24831689  0.41554981  0.58356467  1
  Se  Se123  1  0.58616672  0.08330148  0.91966188  1
  Se  Se124  1  0.58393984  0.41848190  0.91812100  1
  Se  Se125  1  0.58580178  0.74835358  0.91652426  1
  Se  Se126  1  0.91540716  0.41578384  0.58405808  1
  Se  Se127  1  0.91457836  0.41813638  0.91629268  1
  Se  Se128  1  0.91810409  0.75019279  0.58398604  1
  Se  Se129  1  0.91572794  0.75099114  0.91769821  1
  Se  Se130  1  0.58416454  0.25051146  0.08321021  1
  Se  Se131  1  0.58283302  0.58199553  0.08030172  1
  Se  Se132  1  0.58543701  0.58152581  0.75357395  1
  Se  Se133  1  0.91549547  0.58297453  0.08004324  1
  Se  Se134  1  0.91284698  0.91630356  0.08080383  1
  Te  Te135  1  0.08195965  0.08214136  0.08259279  1
  Te  Te136  1  0.08353547  0.08299027  0.42030233  1
  Te  Te137  1  0.08349392  0.08376352  0.74678841  1
  Te  Te138  1  0.08115216  0.41734836  0.08323580  1
  Te  Te139  1  0.08404800  0.41665120  0.41946333  1
  Te  Te140  1  0.08157818  0.41588832  0.74758518  1
  Te  Te141  1  0.07915303  0.74980819  0.08244680  1
  Te  Te142  1  0.08136523  0.75104224  0.41912526  1
  Te  Te143  1  0.41956490  0.08515098  0.08420048  1
  Te  Te144  1  0.41642185  0.08433517  0.41471953  1
  Te  Te145  1  0.41701301  0.08305971  0.75055845  1
  Te  Te146  1  0.41483536  0.41556865  0.41553768  1
  Te  Te147  1  0.41834759  0.41766863  0.74986010  1
  Te  Te148  1  0.41963850  0.75013994  0.08330263  1
  Te  Te149  1  0.41703159  0.75062260  0.41549972  1
  Te  Te150  1  0.41983792  0.74797497  0.75174388  1
  Te  Te151  1  0.75037437  0.08507944  0.41544839  1
  Te  Te152  1  0.74956713  0.08218098  0.75246063  1
  Te  Te153  1  0.74853432  0.41690710  0.08215294  1
  Te  Te154  1  0.75125136  0.74909526  0.07899248  1
  Te  Te155  1  0.74986547  0.74990720  0.75237219  1
  Te  Te156  1  0.08474637  0.25094034  0.25019551  1
  Te  Te157  1  0.08141311  0.25099667  0.91709219  1
  Te  Te158  1  0.08314905  0.58124291  0.24951003  1
  Te  Te159  1  0.08153408  0.58310761  0.58492888  1
  Te  Te160  1  0.07940332  0.58491061  0.91593517  1
  Te  Te161  1  0.08141264  0.91705865  0.24879715  1
  Te  Te162  1  0.08059126  0.91451977  0.91625708  1
  Te  Te163  1  0.41422387  0.24981301  0.58264395  1
  Te  Te164  1  0.42072787  0.25060791  0.91965486  1
  Te  Te165  1  0.41715037  0.58065474  0.24713398  1
  Te  Te166  1  0.41639741  0.58157275  0.58385875  1
  Te  Te167  1  0.42213054  0.58218374  0.91829695  1
  Te  Te168  1  0.41561984  0.91829361  0.58383294  1
  Te  Te169  1  0.41919877  0.91683042  0.91684070  1
  Te  Te170  1  0.75134592  0.25333039  0.58348242  1
  Te  Te171  1  0.74797186  0.25171943  0.91784822  1
  Te  Te172  1  0.74948888  0.58345542  0.24928349  1
  Te  Te173  1  0.75167139  0.58239803  0.58376270  1
  Te  Te174  1  0.74890142  0.58174888  0.91702003  1
  Te  Te175  1  0.75167454  0.91699486  0.24863252  1
  Te  Te176  1  0.75121714  0.91433815  0.58223035  1
  Te  Te177  1  0.25274510  0.08394718  0.25008314  1
  Te  Te178  1  0.25017975  0.08412793  0.91670888  1
  Te  Te179  1  0.25131581  0.41627195  0.91757430  1
  Te  Te180  1  0.25096466  0.75117260  0.24982185  1
  Te  Te181  1  0.24702776  0.75075651  0.58504312  1
  Te  Te182  1  0.24885469  0.74881025  0.91474430  1
  Te  Te183  1  0.58311324  0.08629672  0.24688328  1
  Te  Te184  1  0.58372191  0.08378007  0.58405569  1
  Te  Te185  1  0.58396475  0.41404309  0.24693141  1
  Te  Te186  1  0.58579203  0.41774963  0.58500508  1
  Te  Te187  1  0.58361988  0.74924324  0.24909599  1
  Te  Te188  1  0.58532305  0.74851238  0.58447764  1
  Te  Te189  1  0.91402073  0.08341255  0.24776838  1
  Te  Te190  1  0.91908390  0.08374250  0.58418222  1
  Te  Te191  1  0.91377554  0.08126957  0.91790634  1
  Te  Te192  1  0.91422501  0.41742557  0.24969782  1
  Te  Te193  1  0.91500860  0.74923502  0.24833006  1
  Te  Te194  1  0.25221694  0.25261878  0.08530935  1
  Te  Te195  1  0.25053783  0.25173313  0.41768506  1
  Te  Te196  1  0.24948303  0.25019328  0.74658381  1
  Te  Te197  1  0.25176362  0.58094280  0.08448265  1
  Te  Te198  1  0.25018703  0.58050319  0.41648561  1
  Te  Te199  1  0.24829837  0.58327330  0.74973101  1
  Te  Te200  1  0.25157734  0.91600551  0.08435164  1
  Te  Te201  1  0.24937469  0.91846481  0.41766663  1
  Te  Te202  1  0.24765701  0.91619380  0.74770748  1
  Te  Te203  1  0.58447259  0.25192528  0.41377618  1
  Te  Te204  1  0.58469350  0.25185549  0.75277593  1
  Te  Te205  1  0.58625948  0.58287696  0.41598613  1
  Te  Te206  1  0.58502887  0.91773541  0.08042683  1
  Te  Te207  1  0.58381785  0.91503075  0.41492950  1
  Te  Te208  1  0.58512334  0.91627044  0.75466655  1
  Te  Te209  1  0.91361207  0.25077370  0.08302939  1
  Te  Te210  1  0.91500642  0.25181903  0.41736324  1
  Te  Te211  1  0.91591494  0.25419454  0.74992854  1
  Te  Te212  1  0.91379611  0.58334727  0.41882221  1
  Te  Te213  1  0.91588001  0.58372631  0.75026240  1
  Te  Te214  1  0.91681793  0.91378902  0.41857238  1
  Te  Te215  1  0.91743216  0.91296332  0.75059504  1
