# generated using pymatgen
data_Cd108Cu2(Te3Se)27
_symmetry_space_group_name_H-M   'P 1'
_cell_length_a   19.56885388
_cell_length_b   19.56453553
_cell_length_c   19.56721656
_cell_angle_alpha   90.00225732
_cell_angle_beta   89.99767949
_cell_angle_gamma   90.00013634
_symmetry_Int_Tables_number   1
_chemical_formula_structural   Cd108Cu2(Te3Se)27
_chemical_formula_sum   'Cd108 Cu2 Te81 Se27'
_cell_volume   7491.41719102
_cell_formula_units_Z   1
loop_
 _symmetry_equiv_pos_site_id
 _symmetry_equiv_pos_as_xyz
  1  'x, y, z'
loop_
 _atom_site_type_symbol
 _atom_site_label
 _atom_site_symmetry_multiplicity
 _atom_site_fract_x
 _atom_site_fract_y
 _atom_site_fract_z
 _atom_site_occupancy
  Cd  Cd0  1  0.99532443  0.99539582  0.00303518  1
  Cd  Cd1  1  0.99863352  0.00082254  0.33425204  1
  Cd  Cd2  1  0.00330681  0.99448272  0.66434816  1
  Cd  Cd3  1  0.99429131  0.33749228  0.99637892  1
  Cd  Cd4  1  0.99997213  0.33445956  0.33410139  1
  Cd  Cd5  1  0.99986831  0.33305708  0.65881869  1
  Cd  Cd6  1  0.99165003  0.66719468  0.99926169  1
  Cd  Cd7  1  0.99945910  0.66595998  0.33340789  1
  Cd  Cd8  1  0.99937128  0.67212871  0.66761262  1
  Cd  Cd9  1  0.33471078  0.00059893  0.00091546  1
  Cd  Cd10  1  0.33693450  0.99624288  0.33038602  1
  Cd  Cd11  1  0.32818587  0.00475888  0.66328474  1
  Cd  Cd12  1  0.33907881  0.33742680  0.00469071  1
  Cd  Cd13  1  0.33378744  0.33272352  0.32631946  1
  Cd  Cd14  1  0.33059023  0.33810613  0.66337582  1
  Cd  Cd15  1  0.33491428  0.66572368  0.99955752  1
  Cd  Cd16  1  0.33388905  0.66511837  0.33258726  1
  Cd  Cd17  1  0.33312460  0.66694485  0.66738570  1
  Cd  Cd18  1  0.67099096  0.00349178  0.99752790  1
  Cd  Cd19  1  0.66625634  0.00126158  0.33174933  1
  Cd  Cd20  1  0.66731715  0.99830335  0.66713568  1
  Cd  Cd21  1  0.65919667  0.33416394  0.99965887  1
  Cd  Cd22  1  0.67409818  0.33399975  0.33179703  1
  Cd  Cd23  1  0.67203453  0.33721231  0.67313385  1
  Cd  Cd24  1  0.66075740  0.66555149  0.99939122  1
  Cd  Cd25  1  0.67124163  0.67107950  0.33607277  1
  Cd  Cd26  1  0.66417399  0.66072278  0.67224365  1
  Cd  Cd27  1  0.99959034  0.16795875  0.16659646  1
  Cd  Cd28  1  0.00383552  0.17219875  0.50326452  1
  Cd  Cd29  1  0.99816600  0.16615561  0.83245233  1
  Cd  Cd30  1  0.99482892  0.50413527  0.16239838  1
  Cd  Cd31  1  0.99514675  0.49740442  0.50447824  1
  Cd  Cd32  1  0.99585412  0.49634910  0.83610469  1
  Cd  Cd33  1  0.99434120  0.83782231  0.16247321  1
  Cd  Cd34  1  0.99984131  0.83406242  0.50811949  1
  Cd  Cd35  1  0.99922657  0.82493135  0.83368004  1
  Cd  Cd36  1  0.33792933  0.17070751  0.17017353  1
  Cd  Cd37  1  0.32886373  0.16187407  0.50239771  1
  Cd  Cd38  1  0.33428909  0.16901928  0.83368825  1
  Cd  Cd39  1  0.33491867  0.49114159  0.16594937  1
  Cd  Cd40  1  0.32912674  0.49506969  0.50392934  1
  Cd  Cd41  1  0.33447778  0.50125343  0.83389334  1
  Cd  Cd42  1  0.33872816  0.83653895  0.16992228  1
  Cd  Cd43  1  0.33230816  0.83307144  0.50007531  1
  Cd  Cd44  1  0.33403871  0.83401764  0.83249986  1
  Cd  Cd45  1  0.66944648  0.17055280  0.16195084  1
  Cd  Cd46  1  0.66673867  0.16831839  0.49990105  1
  Cd  Cd47  1  0.66332338  0.16361477  0.83793083  1
  Cd  Cd48  1  0.66303359  0.50387146  0.16235888  1
  Cd  Cd49  1  0.67177721  0.49578198  0.49617643  1
  Cd  Cd50  1  0.66483156  0.49642747  0.83168263  1
  Cd  Cd51  1  0.66757609  0.83301769  0.16491416  1
  Cd  Cd52  1  0.67062782  0.82899113  0.49582796  1
  Cd  Cd53  1  0.66871615  0.83287811  0.84226297  1
  Cd  Cd54  1  0.16695564  0.00094295  0.16678226  1
  Cd  Cd55  1  0.16591547  0.99896760  0.50731004  1
  Cd  Cd56  1  0.16543433  0.99993007  0.83334465  1
  Cd  Cd57  1  0.16997678  0.33741972  0.16989448  1
  Cd  Cd58  1  0.16649292  0.33292411  0.50670623  1
  Cd  Cd59  1  0.16643838  0.33336003  0.83228714  1
  Cd  Cd60  1  0.16626254  0.66702417  0.16650294  1
  Cd  Cd61  1  0.16571963  0.66525751  0.49983589  1
  Cd  Cd62  1  0.16000021  0.66996587  0.82812498  1
  Cd  Cd63  1  0.49806899  0.99625378  0.16910135  1
  Cd  Cd64  1  0.50036869  0.00024221  0.49886052  1
  Cd  Cd65  1  0.50468801  0.00481053  0.83821290  1
  Cd  Cd66  1  0.49823816  0.32885691  0.16256175  1
  Cd  Cd67  1  0.50022069  0.33346968  0.50010886  1
  Cd  Cd68  1  0.50395545  0.33823857  0.83849642  1
  Cd  Cd69  1  0.50449503  0.66115108  0.16209873  1
  Cd  Cd70  1  0.50012315  0.66601747  0.49962502  1
  Cd  Cd71  1  0.50887646  0.66587954  0.83452526  1
  Cd  Cd72  1  0.83198613  0.00044948  0.15799498  1
  Cd  Cd73  1  0.83387516  0.00070727  0.49985330  1
  Cd  Cd74  1  0.82990141  0.99406083  0.83655884  1
  Cd  Cd75  1  0.82778206  0.33050320  0.17014725  1
  Cd  Cd76  1  0.83384519  0.34139282  0.49972151  1
  Cd  Cd77  1  0.83144210  0.34093929  0.83463707  1
  Cd  Cd78  1  0.83585944  0.66221875  0.16166206  1
  Cd  Cd79  1  0.83416271  0.67332219  0.50197568  1
  Cd  Cd80  1  0.83578749  0.66957344  0.83803376  1
  Cd  Cd81  1  0.16686651  0.16781364  0.00150678  1
  Cd  Cd82  1  0.16767796  0.16608778  0.33492812  1
  Cd  Cd83  1  0.16594861  0.16693790  0.65965277  1
  Cd  Cd84  1  0.16564884  0.50117636  0.99881841  1
  Cd  Cd85  1  0.17064468  0.49477943  0.32992255  1
  Cd  Cd86  1  0.16976725  0.49657442  0.66336790  1
  Cd  Cd87  1  0.16633602  0.83271319  0.00004715  1
  Cd  Cd88  1  0.16552893  0.83359640  0.33446681  1
  Cd  Cd89  1  0.15796693  0.83339205  0.66721891  1
  Cd  Cd90  1  0.50924755  0.16664551  0.00083015  1
  Cd  Cd91  1  0.49615141  0.17196115  0.32859571  1
  Cd  Cd92  1  0.50024120  0.16873953  0.66762264  1
  Cd  Cd93  1  0.50397026  0.49537845  0.00396782  1
  Cd  Cd94  1  0.50125175  0.49852284  0.33217989  1
  Cd  Cd95  1  0.50484018  0.50488358  0.67139867  1
  Cd  Cd96  1  0.50537683  0.82891276  0.99566767  1
  Cd  Cd97  1  0.49708572  0.83635688  0.32803960  1
  Cd  Cd98  1  0.50082472  0.83426509  0.66749362  1
  Cd  Cd99  1  0.82827353  0.16311883  0.00353697  1
  Cd  Cd100  1  0.82933847  0.17164959  0.32857448  1
  Cd  Cd101  1  0.83346904  0.16678663  0.66792464  1
  Cd  Cd102  1  0.83800261  0.49911418  0.99971532  1
  Cd  Cd103  1  0.82888751  0.49650174  0.33664328  1
  Cd  Cd104  1  0.83381405  0.49385680  0.66770071  1
  Cd  Cd105  1  0.83566830  0.83624170  0.99548925  1
  Cd  Cd106  1  0.82954977  0.82898155  0.33658032  1
  Cd  Cd107  1  0.83711939  0.82859279  0.66368554  1
  Se  Se108  1  0.07977345  0.75114593  0.74875768  1
  Se  Se109  1  0.42064609  0.41559257  0.08448947  1
  Se  Se110  1  0.74789169  0.08369766  0.08263407  1
  Se  Se111  1  0.75017464  0.41478003  0.41604774  1
  Se  Se112  1  0.75030740  0.41861690  0.75185015  1
  Se  Se113  1  0.75180686  0.74921431  0.41817989  1
  Se  Se114  1  0.08431672  0.25125737  0.58288689  1
  Se  Se115  1  0.08331982  0.91530784  0.58418791  1
  Se  Se116  1  0.41744792  0.25293280  0.24775142  1
  Se  Se117  1  0.41731072  0.91730843  0.24974467  1
  Se  Se118  1  0.74782820  0.24960844  0.24820599  1
  Se  Se119  1  0.75005416  0.91658650  0.91981349  1
  Se  Se120  1  0.24697313  0.08367064  0.58320354  1
  Se  Se121  1  0.25272696  0.41541889  0.24904000  1
  Se  Se122  1  0.24836146  0.41554294  0.58354023  1
  Se  Se123  1  0.58624596  0.08352669  0.91927918  1
  Se  Se124  1  0.58368255  0.41846332  0.91797019  1
  Se  Se125  1  0.58589055  0.74840137  0.91653168  1
  Se  Se126  1  0.91569214  0.41600000  0.58393349  1
  Se  Se127  1  0.91419842  0.41794039  0.91642376  1
  Se  Se128  1  0.91803797  0.75033857  0.58393700  1
  Se  Se129  1  0.91576651  0.75095895  0.91769985  1
  Se  Se130  1  0.58450753  0.25035636  0.08322127  1
  Se  Se131  1  0.58298634  0.58230008  0.08025250  1
  Se  Se132  1  0.58517847  0.58128507  0.75339284  1
  Se  Se133  1  0.91574972  0.58291831  0.08018136  1
  Se  Se134  1  0.91279424  0.91655420  0.08070247  1
  Te  Te135  1  0.08204829  0.08235586  0.08270587  1
  Te  Te136  1  0.08379075  0.08311159  0.42030672  1
  Te  Te137  1  0.08350427  0.08382607  0.74677681  1
  Te  Te138  1  0.08105506  0.41741518  0.08327525  1
  Te  Te139  1  0.08403072  0.41664322  0.41957814  1
  Te  Te140  1  0.08139150  0.41594681  0.74727208  1
  Te  Te141  1  0.07960308  0.74990817  0.08254666  1
  Te  Te142  1  0.08142228  0.75105656  0.41917806  1
  Te  Te143  1  0.41957524  0.08518241  0.08422486  1
  Te  Te144  1  0.41643285  0.08435737  0.41481267  1
  Te  Te145  1  0.41700034  0.08328965  0.75027271  1
  Te  Te146  1  0.41478253  0.41557303  0.41585865  1
  Te  Te147  1  0.41864125  0.41770567  0.74982329  1
  Te  Te148  1  0.41965314  0.75002730  0.08339130  1
  Te  Te149  1  0.41708667  0.75064330  0.41553926  1
  Te  Te150  1  0.42002592  0.74806373  0.75177308  1
  Te  Te151  1  0.75050323  0.08522631  0.41538452  1
  Te  Te152  1  0.74970237  0.08212619  0.75255593  1
  Te  Te153  1  0.74837830  0.41672574  0.08232031  1
  Te  Te154  1  0.75130317  0.74907393  0.07896120  1
  Te  Te155  1  0.75006075  0.74993510  0.75193658  1
  Te  Te156  1  0.08436011  0.25076440  0.25008164  1
  Te  Te157  1  0.08123888  0.25079207  0.91690122  1
  Te  Te158  1  0.08331866  0.58134537  0.24946742  1
  Te  Te159  1  0.08155053  0.58333392  0.58474201  1
  Te  Te160  1  0.07939447  0.58493382  0.91618881  1
  Te  Te161  1  0.08152536  0.91700994  0.24880274  1
  Te  Te162  1  0.08054339  0.91449975  0.91625536  1
  Te  Te163  1  0.41436199  0.24968122  0.58280040  1
  Te  Te164  1  0.42075655  0.25061578  0.91963436  1
  Te  Te165  1  0.41684846  0.58070731  0.24735284  1
  Te  Te166  1  0.41632671  0.58103807  0.58389942  1
  Te  Te167  1  0.42218382  0.58247426  0.91815352  1
  Te  Te168  1  0.41598414  0.91818606  0.58386125  1
  Te  Te169  1  0.41933661  0.91669272  0.91704599  1
  Te  Te170  1  0.75176165  0.25316525  0.58328949  1
  Te  Te171  1  0.74794594  0.25173371  0.91782699  1
  Te  Te172  1  0.74983998  0.58321186  0.24909115  1
  Te  Te173  1  0.75161313  0.58237410  0.58375562  1
  Te  Te174  1  0.74888118  0.58170067  0.91697223  1
  Te  Te175  1  0.75171804  0.91710261  0.24861200  1
  Te  Te176  1  0.75104375  0.91435032  0.58205655  1
  Te  Te177  1  0.25266509  0.08411818  0.25006055  1
  Te  Te178  1  0.25012285  0.08421075  0.91693021  1
  Te  Te179  1  0.25098288  0.41618735  0.91758706  1
  Te  Te180  1  0.25107093  0.75127185  0.24991590  1
  Te  Te181  1  0.24701101  0.75058658  0.58479351  1
  Te  Te182  1  0.24859308  0.74862680  0.91502378  1
  Te  Te183  1  0.58305230  0.08628492  0.24673911  1
  Te  Te184  1  0.58374406  0.08394200  0.58414179  1
  Te  Te185  1  0.58381703  0.41398410  0.24691243  1
  Te  Te186  1  0.58570436  0.41824016  0.58462036  1
  Te  Te187  1  0.58389996  0.74915297  0.24923306  1
  Te  Te188  1  0.58537512  0.74842567  0.58430643  1
  Te  Te189  1  0.91391111  0.08322688  0.24790130  1
  Te  Te190  1  0.91918706  0.08358231  0.58414780  1
  Te  Te191  1  0.91379504  0.08139060  0.91762127  1
  Te  Te192  1  0.91460652  0.41751895  0.24966065  1
  Te  Te193  1  0.91514481  0.74922104  0.24834473  1
  Te  Te194  1  0.25219249  0.25270313  0.08498064  1
  Te  Te195  1  0.25074632  0.25151464  0.41775118  1
  Te  Te196  1  0.24946393  0.25021703  0.74654001  1
  Te  Te197  1  0.25141970  0.58093074  0.08440002  1
  Te  Te198  1  0.25021765  0.58059012  0.41647677  1
  Te  Te199  1  0.24843730  0.58344313  0.74990531  1
  Te  Te200  1  0.25183463  0.91580301  0.08440479  1
  Te  Te201  1  0.24937636  0.91846867  0.41767351  1
  Te  Te202  1  0.24761022  0.91625376  0.74768556  1
  Te  Te203  1  0.58460403  0.25205155  0.41375280  1
  Te  Te204  1  0.58480537  0.25189595  0.75257148  1
  Te  Te205  1  0.58629631  0.58281253  0.41611676  1
  Te  Te206  1  0.58538724  0.91793778  0.08052436  1
  Te  Te207  1  0.58360265  0.91519617  0.41479136  1
  Te  Te208  1  0.58508555  0.91634812  0.75473220  1
  Te  Te209  1  0.91360436  0.25079360  0.08302445  1
  Te  Te210  1  0.91489004  0.25196001  0.41733768  1
  Te  Te211  1  0.91583823  0.25428070  0.74983585  1
  Te  Te212  1  0.91386412  0.58327420  0.41891788  1
  Te  Te213  1  0.91594943  0.58345856  0.75034062  1
  Te  Te214  1  0.91694022  0.91398558  0.41853682  1
  Te  Te215  1  0.91764938  0.91337594  0.75055602  1
  Cu  Cu216  1  0.50002321  0.49974285  0.49968651  1
  Cu  Cu217  1  0.63283600  0.29985564  0.56576661  1
