# generated using pymatgen
data_Cd107(Te3Se)27
_symmetry_space_group_name_H-M   'P 1'
_cell_length_a   19.56885388
_cell_length_b   19.56453553
_cell_length_c   19.56721656
_cell_angle_alpha   90.00225732
_cell_angle_beta   89.99767949
_cell_angle_gamma   90.00013634
_symmetry_Int_Tables_number   1
_chemical_formula_structural   Cd107(Te3Se)27
_chemical_formula_sum   'Cd107 Te81 Se27'
_cell_volume   7491.41719102
_cell_formula_units_Z   1
loop_
 _symmetry_equiv_pos_site_id
 _symmetry_equiv_pos_as_xyz
  1  'x, y, z'
loop_
 _atom_site_type_symbol
 _atom_site_label
 _atom_site_symmetry_multiplicity
 _atom_site_fract_x
 _atom_site_fract_y
 _atom_site_fract_z
 _atom_site_occupancy
  Cd  Cd0  1  0.99518437  0.99536048  0.00308400  1
  Cd  Cd1  1  0.99837800  0.00036556  0.33457022  1
  Cd  Cd2  1  0.00310680  0.99474997  0.66402184  1
  Cd  Cd3  1  0.99425220  0.33751878  0.99634358  1
  Cd  Cd4  1  0.99996040  0.33427812  0.33376062  1
  Cd  Cd5  1  0.99974227  0.33313267  0.65884383  1
  Cd  Cd6  1  0.99147159  0.66683540  0.99932676  1
  Cd  Cd7  1  0.99929661  0.66598457  0.33381938  1
  Cd  Cd8  1  0.99892040  0.67196757  0.66729208  1
  Cd  Cd9  1  0.33482206  0.00075617  0.00084914  1
  Cd  Cd10  1  0.33721079  0.99633431  0.33011847  1
  Cd  Cd11  1  0.32818162  0.00457803  0.66382753  1
  Cd  Cd12  1  0.33901894  0.33734017  0.00447663  1
  Cd  Cd13  1  0.33348751  0.33248671  0.32671773  1
  Cd  Cd14  1  0.33045238  0.33819345  0.66329106  1
  Cd  Cd15  1  0.33465086  0.66621298  0.99967719  1
  Cd  Cd16  1  0.33403484  0.66535137  0.33318014  1
  Cd  Cd17  1  0.33344799  0.66712050  0.66679453  1
  Cd  Cd18  1  0.67070419  0.00361105  0.99746882  1
  Cd  Cd19  1  0.66626348  0.00123332  0.33133449  1
  Cd  Cd20  1  0.66730265  0.99816606  0.66694177  1
  Cd  Cd21  1  0.65912136  0.33430492  0.99955392  1
  Cd  Cd22  1  0.67364720  0.33410452  0.33140642  1
  Cd  Cd23  1  0.67171233  0.33694730  0.67221396  1
  Cd  Cd24  1  0.66044940  0.66559320  0.99907428  1
  Cd  Cd25  1  0.67123628  0.67096320  0.33607589  1
  Cd  Cd26  1  0.66462346  0.66133948  0.67228271  1
  Cd  Cd27  1  0.99940731  0.16809375  0.16592009  1
  Cd  Cd28  1  0.00334617  0.17207097  0.50349431  1
  Cd  Cd29  1  0.99865894  0.16592851  0.83225715  1
  Cd  Cd30  1  0.99452037  0.50427526  0.16180327  1
  Cd  Cd31  1  0.99517732  0.49726139  0.50457386  1
  Cd  Cd32  1  0.99576605  0.49671543  0.83566081  1
  Cd  Cd33  1  0.99415373  0.83770813  0.16245500  1
  Cd  Cd34  1  0.99978275  0.83375748  0.50845008  1
  Cd  Cd35  1  0.99885612  0.82497588  0.83403433  1
  Cd  Cd36  1  0.33827090  0.17086126  0.17020782  1
  Cd  Cd37  1  0.32876353  0.16227311  0.50229929  1
  Cd  Cd38  1  0.33459110  0.16876269  0.83320946  1
  Cd  Cd39  1  0.33474660  0.49121263  0.16647791  1
  Cd  Cd40  1  0.32995431  0.49477341  0.50378108  1
  Cd  Cd41  1  0.33462591  0.50134579  0.83407646  1
  Cd  Cd42  1  0.33836309  0.83636613  0.17000091  1
  Cd  Cd43  1  0.33227684  0.83266632  0.50021853  1
  Cd  Cd44  1  0.33398355  0.83418915  0.83259186  1
  Cd  Cd45  1  0.66928702  0.17093830  0.16176715  1
  Cd  Cd46  1  0.66708896  0.16818978  0.49990275  1
  Cd  Cd47  1  0.66329209  0.16360524  0.83795343  1
  Cd  Cd48  1  0.66265360  0.50399220  0.16226809  1
  Cd  Cd49  1  0.67164744  0.49601552  0.49593917  1
  Cd  Cd50  1  0.66485473  0.49633300  0.83172354  1
  Cd  Cd51  1  0.66777079  0.83264184  0.16492822  1
  Cd  Cd52  1  0.67036084  0.82843614  0.49596755  1
  Cd  Cd53  1  0.66854544  0.83316355  0.84192716  1
  Cd  Cd54  1  0.16780111  0.00094031  0.16683271  1
  Cd  Cd55  1  0.16621716  0.99924286  0.50763737  1
  Cd  Cd56  1  0.16585867  -0.00000451  0.83318120  1
  Cd  Cd57  1  0.16994677  0.33792867  0.16996973  1
  Cd  Cd58  1  0.16647012  0.33275921  0.50660314  1
  Cd  Cd59  1  0.16621009  0.33332001  0.83214402  1
  Cd  Cd60  1  0.16626197  0.66671235  0.16618889  1
  Cd  Cd61  1  0.16576714  0.66520882  0.49989422  1
  Cd  Cd62  1  0.16024077  0.67000250  0.82821340  1
  Cd  Cd63  1  0.49787228  0.99652086  0.16878473  1
  Cd  Cd64  1  0.50051904  0.00034093  0.49898183  1
  Cd  Cd65  1  0.50457757  0.00467730  0.83823179  1
  Cd  Cd66  1  0.49794971  0.32899404  0.16254251  1
  Cd  Cd67  1  0.50040894  0.33349260  0.50049010  1
  Cd  Cd68  1  0.50390795  0.33818389  0.83879681  1
  Cd  Cd69  1  0.50434057  0.66129054  0.16240473  1
  Cd  Cd70  1  0.50936203  0.66589906  0.83473093  1
  Cd  Cd71  1  0.83235300  0.00025690  0.15810070  1
  Cd  Cd72  1  0.83423481  0.00099798  0.49954506  1
  Cd  Cd73  1  0.82948993  0.99385995  0.83668441  1
  Cd  Cd74  1  0.82787004  0.33017851  0.17016903  1
  Cd  Cd75  1  0.83393161  0.34078373  0.50000521  1
  Cd  Cd76  1  0.83162371  0.34066000  0.83424130  1
  Cd  Cd77  1  0.83567405  0.66213177  0.16189011  1
  Cd  Cd78  1  0.83438817  0.67354626  0.50190610  1
  Cd  Cd79  1  0.83564101  0.66989496  0.83821958  1
  Cd  Cd80  1  0.16685989  0.16803354  0.00105415  1
  Cd  Cd81  1  0.16729993  0.16613142  0.33488634  1
  Cd  Cd82  1  0.16633706  0.16743343  0.65970743  1
  Cd  Cd83  1  0.16540619  0.50098657  0.99917385  1
  Cd  Cd84  1  0.17052714  0.49467198  0.32964894  1
  Cd  Cd85  1  0.16943939  0.49654453  0.66328760  1
  Cd  Cd86  1  0.16631470  0.83284121  0.00014460  1
  Cd  Cd87  1  0.16561254  0.83363478  0.33428776  1
  Cd  Cd88  1  0.15794572  0.83328842  0.66715926  1
  Cd  Cd89  1  0.50954295  0.16653324  0.00116385  1
  Cd  Cd90  1  0.49649065  0.17210294  0.32787676  1
  Cd  Cd91  1  0.49984960  0.16910383  0.66785886  1
  Cd  Cd92  1  0.50404635  0.49552295  0.00370162  1
  Cd  Cd93  1  0.50127673  0.49904854  0.33271675  1
  Cd  Cd94  1  0.50485090  0.50463217  0.67091615  1
  Cd  Cd95  1  0.50517783  0.82867183  0.99545301  1
  Cd  Cd96  1  0.49678906  0.83642900  0.32836576  1
  Cd  Cd97  1  0.50099681  0.83420471  0.66743989  1
  Cd  Cd98  1  0.82821950  0.16332581  0.00337278  1
  Cd  Cd99  1  0.82929220  0.17167780  0.32867305  1
  Cd  Cd100  1  0.83316065  0.16701969  0.66806980  1
  Cd  Cd101  1  0.83838236  0.49931950  0.99956775  1
  Cd  Cd102  1  0.82840766  0.49638686  0.33690678  1
  Cd  Cd103  1  0.83374743  0.49405755  0.66728563  1
  Cd  Cd104  1  0.83556208  0.83638818  0.99561829  1
  Cd  Cd105  1  0.82963094  0.82942324  0.33674670  1
  Cd  Cd106  1  0.83697429  0.82852367  0.66375681  1
  Se  Se107  1  0.08002376  0.75091348  0.74857749  1
  Se  Se108  1  0.42059345  0.41537718  0.08468354  1
  Se  Se109  1  0.74814844  0.08353352  0.08286191  1
  Se  Se110  1  0.75058619  0.41494296  0.41616875  1
  Se  Se111  1  0.75039114  0.41871208  0.75191176  1
  Se  Se112  1  0.75214763  0.74918045  0.41830423  1
  Se  Se113  1  0.08463967  0.25150348  0.58341960  1
  Se  Se114  1  0.08332476  0.91558042  0.58420590  1
  Se  Se115  1  0.41707895  0.25306832  0.24775343  1
  Se  Se116  1  0.41744498  0.91732587  0.24953453  1
  Se  Se117  1  0.74774514  0.24959233  0.24813694  1
  Se  Se118  1  0.74982612  0.91646174  0.91943441  1
  Se  Se119  1  0.24728231  0.08402581  0.58331841  1
  Se  Se120  1  0.25258474  0.41546629  0.24868981  1
  Se  Se121  1  0.24822565  0.41548345  0.58350117  1
  Se  Se122  1  0.58628720  0.08339530  0.91973322  1
  Se  Se123  1  0.58412816  0.41864977  0.91778340  1
  Se  Se124  1  0.58586854  0.74824092  0.91633719  1
  Se  Se125  1  0.91577825  0.41576182  0.58399212  1
  Se  Se126  1  0.91463504  0.41776902  0.91617359  1
  Se  Se127  1  0.91806295  0.75036713  0.58392313  1
  Se  Se128  1  0.91566153  0.75077157  0.91778618  1
  Se  Se129  1  0.58435604  0.25043556  0.08275413  1
  Se  Se130  1  0.58289601  0.58183332  0.07993866  1
  Se  Se131  1  0.58553587  0.58158794  0.75383855  1
  Se  Se132  1  0.91555451  0.58307993  0.07988523  1
  Se  Se133  1  0.91281796  0.91658968  0.08048174  1
  Te  Te134  1  0.08179922  0.08219555  0.08281148  1
  Te  Te135  1  0.08349186  0.08309601  0.42025716  1
  Te  Te136  1  0.08357461  0.08379911  0.74679468  1
  Te  Te137  1  0.08140950  0.41762224  0.08340677  1
  Te  Te138  1  0.08406399  0.41676351  0.41953164  1
  Te  Te139  1  0.08157142  0.41590264  0.74756405  1
  Te  Te140  1  0.07917639  0.74976411  0.08241360  1
  Te  Te141  1  0.08145378  0.75095587  0.41930969  1
  Te  Te142  1  0.41997660  0.08500718  0.08394163  1
  Te  Te143  1  0.41612630  0.08447371  0.41463246  1
  Te  Te144  1  0.41707626  0.08299776  0.75059533  1
  Te  Te145  1  0.41473165  0.41526012  0.41546722  1
  Te  Te146  1  0.41847514  0.41780494  0.74978867  1
  Te  Te147  1  0.41981567  0.75002391  0.08330837  1
  Te  Te148  1  0.41742356  0.75077749  0.41573423  1
  Te  Te149  1  0.41982986  0.74800712  0.75166498  1
  Te  Te150  1  0.75067646  0.08518957  0.41522181  1
  Te  Te151  1  0.74938492  0.08248226  0.75243206  1
  Te  Te152  1  0.74831021  0.41719173  0.08210641  1
  Te  Te153  1  0.75125472  0.74909042  0.07898625  1
  Te  Te154  1  0.74963900  0.74997825  0.75236056  1
  Te  Te155  1  0.08446799  0.25108925  0.24991790  1
  Te  Te156  1  0.08153774  0.25100493  0.91727948  1
  Te  Te157  1  0.08307265  0.58128709  0.24981544  1
  Te  Te158  1  0.08154999  0.58310455  0.58482277  1
  Te  Te159  1  0.07958701  0.58475250  0.91557892  1
  Te  Te160  1  0.08144823  0.91717643  0.24863962  1
  Te  Te161  1  0.08090638  0.91438908  0.91630583  1
  Te  Te162  1  0.41402929  0.24987600  0.58272043  1
  Te  Te163  1  0.42074395  0.25061879  0.91945571  1
  Te  Te164  1  0.41711941  0.58066656  0.24683706  1
  Te  Te165  1  0.41652461  0.58163304  0.58371446  1
  Te  Te166  1  0.42227602  0.58216737  0.91841324  1
  Te  Te167  1  0.41559028  0.91834541  0.58386001  1
  Te  Te168  1  0.41930440  0.91695349  0.91659834  1
  Te  Te169  1  0.75128900  0.25345305  0.58342502  1
  Te  Te170  1  0.74768388  0.25177729  0.91778641  1
  Te  Te171  1  0.74929893  0.58347068  0.24931812  1
  Te  Te172  1  0.75183936  0.58243933  0.58375595  1
  Te  Te173  1  0.74885652  0.58130698  0.91718781  1
  Te  Te174  1  0.75184312  0.91720423  0.24857647  1
  Te  Te175  1  0.75112276  0.91474292  0.58225683  1
  Te  Te176  1  0.25268526  0.08391261  0.25004268  1
  Te  Te177  1  0.24999294  0.08393917  0.91641098  1
  Te  Te178  1  0.25112509  0.41639172  0.91787905  1
  Te  Te179  1  0.25086263  0.75110916  0.24989730  1
  Te  Te180  1  0.24693022  0.75083437  0.58485899  1
  Te  Te181  1  0.24896892  0.74873895  0.91466558  1
  Te  Te182  1  0.58305772  0.08639952  0.24701855  1
  Te  Te183  1  0.58373241  0.08381361  0.58406155  1
  Te  Te184  1  0.58418949  0.41406550  0.24684655  1
  Te  Te185  1  0.58590283  0.41780334  0.58484858  1
  Te  Te186  1  0.58386722  0.74905796  0.24884006  1
  Te  Te187  1  0.58528409  0.74844853  0.58442246  1
  Te  Te188  1  0.91402889  0.08342411  0.24774506  1
  Te  Te189  1  0.91934698  0.08352116  0.58411643  1
  Te  Te190  1  0.91370785  0.08127628  0.91799428  1
  Te  Te191  1  0.91430018  0.41737479  0.24965576  1
  Te  Te192  1  0.91492729  0.74919827  0.24822576  1
  Te  Te193  1  0.25216258  0.25251741  0.08534575  1
  Te  Te194  1  0.25043452  0.25175489  0.41759953  1
  Te  Te195  1  0.24958515  0.25041503  0.74679737  1
  Te  Te196  1  0.25182240  0.58089870  0.08450791  1
  Te  Te197  1  0.25006852  0.58066071  0.41653047  1
  Te  Te198  1  0.24841531  0.58312980  0.74979917  1
  Te  Te199  1  0.25185568  0.91619653  0.08437163  1
  Te  Te200  1  0.24908555  0.91873122  0.41794282  1
  Te  Te201  1  0.24762547  0.91641826  0.74762189  1
  Te  Te202  1  0.58457560  0.25184723  0.41414446  1
  Te  Te203  1  0.58455466  0.25190954  0.75267550  1
  Te  Te204  1  0.58622733  0.58294165  0.41608541  1
  Te  Te205  1  0.58508501  0.91765157  0.08013288  1
  Te  Te206  1  0.58378326  0.91525999  0.41501557  1
  Te  Te207  1  0.58518045  0.91625234  0.75475812  1
  Te  Te208  1  0.91342488  0.25052862  0.08285774  1
  Te  Te209  1  0.91518798  0.25189620  0.41704798  1
  Te  Te210  1  0.91603337  0.25455981  0.75025676  1
  Te  Te211  1  0.91380116  0.58333846  0.41882421  1
  Te  Te212  1  0.91614800  0.58366841  0.75028412  1
  Te  Te213  1  0.91683910  0.91380362  0.41855555  1
  Te  Te214  1  0.91743067  0.91294632  0.75061529  1
