# generated using pymatgen
data_Cd108Te81AsSe27O2
_symmetry_space_group_name_H-M   'P 1'
_cell_length_a   19.56885388
_cell_length_b   19.56453553
_cell_length_c   19.56721656
_cell_angle_alpha   90.00225732
_cell_angle_beta   89.99767949
_cell_angle_gamma   90.00013634
_symmetry_Int_Tables_number   1
_chemical_formula_structural   Cd108Te81AsSe27O2
_chemical_formula_sum   'Cd108 Te81 As1 Se27 O2'
_cell_volume   7491.41719102
_cell_formula_units_Z   1
loop_
 _symmetry_equiv_pos_site_id
 _symmetry_equiv_pos_as_xyz
  1  'x, y, z'
loop_
 _atom_site_type_symbol
 _atom_site_label
 _atom_site_symmetry_multiplicity
 _atom_site_fract_x
 _atom_site_fract_y
 _atom_site_fract_z
 _atom_site_occupancy
  Cd  Cd0  1  0.99491494  0.99513358  0.00289277  1
  Cd  Cd1  1  0.99856522  0.00044896  0.33427299  1
  Cd  Cd2  1  0.00308229  0.99474871  0.66387033  1
  Cd  Cd3  1  0.99427627  0.33735988  0.99618588  1
  Cd  Cd4  1  0.99998222  0.33428271  0.33374409  1
  Cd  Cd5  1  0.99966709  0.33283146  0.65898014  1
  Cd  Cd6  1  0.99143599  0.66708378  0.99917666  1
  Cd  Cd7  1  0.99952862  0.66601204  0.33327600  1
  Cd  Cd8  1  0.99880567  0.67194621  0.66707451  1
  Cd  Cd9  1  0.33501152  0.00074213  0.00098528  1
  Cd  Cd10  1  0.33695792  0.99632686  0.33010646  1
  Cd  Cd11  1  0.32820330  0.00458581  0.66385444  1
  Cd  Cd12  1  0.33916045  0.33752721  0.00438981  1
  Cd  Cd13  1  0.33377152  0.33238072  0.32658823  1
  Cd  Cd14  1  0.33068911  0.33827409  0.66383516  1
  Cd  Cd15  1  0.33463916  0.66594967  0.99928980  1
  Cd  Cd16  1  0.33400040  0.66501632  0.33275515  1
  Cd  Cd17  1  0.33325094  0.66697254  0.66698638  1
  Cd  Cd18  1  0.67113979  0.00326658  0.99742937  1
  Cd  Cd19  1  0.66638952  0.00129739  0.33191246  1
  Cd  Cd20  1  0.66720436  0.99838093  0.66758553  1
  Cd  Cd21  1  0.65927941  0.33407112  0.99992072  1
  Cd  Cd22  1  0.67367858  0.33354347  0.33152088  1
  Cd  Cd23  1  0.67212085  0.33691416  0.67280858  1
  Cd  Cd24  1  0.66061488  0.66580103  0.99913963  1
  Cd  Cd25  1  0.67105283  0.67118124  0.33671864  1
  Cd  Cd26  1  0.66467297  0.66101073  0.67193054  1
  Cd  Cd27  1  0.00004646  0.16799046  0.16584782  1
  Cd  Cd28  1  0.00344578  0.17200725  0.50347963  1
  Cd  Cd29  1  0.99858385  0.16610595  0.83282516  1
  Cd  Cd30  1  0.99471482  0.50430508  0.16240285  1
  Cd  Cd31  1  0.99526591  0.49731595  0.50449621  1
  Cd  Cd32  1  0.99621570  0.49626885  0.83528761  1
  Cd  Cd33  1  0.99405759  0.83756664  0.16242769  1
  Cd  Cd34  1  0.00004049  0.83394867  0.50819693  1
  Cd  Cd35  1  0.99907929  0.82478460  0.83377890  1
  Cd  Cd36  1  0.33821614  0.17100849  0.17007309  1
  Cd  Cd37  1  0.32864023  0.16228620  0.50237208  1
  Cd  Cd38  1  0.33479531  0.16871777  0.83345815  1
  Cd  Cd39  1  0.33497266  0.49126030  0.16602247  1
  Cd  Cd40  1  0.32934644  0.49461995  0.50393230  1
  Cd  Cd41  1  0.33474351  0.50127647  0.83384110  1
  Cd  Cd42  1  0.33886725  0.83642786  0.16998873  1
  Cd  Cd43  1  0.33261001  0.83274694  0.50023762  1
  Cd  Cd44  1  0.33397327  0.83405424  0.83251567  1
  Cd  Cd45  1  0.66913481  0.17076932  0.16140286  1
  Cd  Cd46  1  0.66667276  0.16796617  0.49973178  1
  Cd  Cd47  1  0.66308475  0.16340857  0.83801983  1
  Cd  Cd48  1  0.66276379  0.50404098  0.16229961  1
  Cd  Cd49  1  0.67171866  0.49620503  0.49633009  1
  Cd  Cd50  1  0.66494121  0.49654878  0.83162068  1
  Cd  Cd51  1  0.66779584  0.83293426  0.16528917  1
  Cd  Cd52  1  0.67068030  0.82906387  0.49572011  1
  Cd  Cd53  1  0.66822941  0.83280633  0.84211813  1
  Cd  Cd54  1  0.16728433  0.00093332  0.16688535  1
  Cd  Cd55  1  0.16619983  0.99923179  0.50753985  1
  Cd  Cd56  1  0.16541718  0.99989900  0.83330383  1
  Cd  Cd57  1  0.16964472  0.33777703  0.17020284  1
  Cd  Cd58  1  0.16664432  0.33258402  0.50653356  1
  Cd  Cd59  1  0.16595304  0.33299441  0.83205309  1
  Cd  Cd60  1  0.16605089  0.66707878  0.16566254  1
  Cd  Cd61  1  0.16612135  0.66524997  0.49993943  1
  Cd  Cd62  1  0.16056747  0.66999942  0.82809375  1
  Cd  Cd63  1  0.49823346  0.99632445  0.16883611  1
  Cd  Cd64  1  0.50056500  0.00036607  0.49873403  1
  Cd  Cd65  1  0.50476124  0.00499931  0.83807141  1
  Cd  Cd66  1  0.49811700  0.32886333  0.16265131  1
  Cd  Cd67  1  0.50034706  0.33349540  0.50002102  1
  Cd  Cd68  1  0.50388618  0.33791575  0.83882360  1
  Cd  Cd69  1  0.50456777  0.66140225  0.16218442  1
  Cd  Cd70  1  0.50033296  0.66587613  0.49974639  1
  Cd  Cd71  1  0.50889651  0.66583865  0.83440755  1
  Cd  Cd72  1  0.83233340  0.00032647  0.15806197  1
  Cd  Cd73  1  0.83439082  0.00068384  0.49995037  1
  Cd  Cd74  1  0.82942345  0.99394218  0.83679517  1
  Cd  Cd75  1  0.82767170  0.33040858  0.17025564  1
  Cd  Cd76  1  0.83390615  0.34095953  0.49952084  1
  Cd  Cd77  1  0.83160950  0.34074817  0.83436766  1
  Cd  Cd78  1  0.83628437  0.66222216  0.16155657  1
  Cd  Cd79  1  0.83437681  0.67344528  0.50182454  1
  Cd  Cd80  1  0.83585972  0.66921722  0.83829520  1
  Cd  Cd81  1  0.16726684  0.16815523  0.00134109  1
  Cd  Cd82  1  0.16737750  0.16616495  0.33503299  1
  Cd  Cd83  1  0.16610254  0.16724535  0.65978213  1
  Cd  Cd84  1  0.16572031  0.50117350  0.99893244  1
  Cd  Cd85  1  0.17080747  0.49450492  0.32963940  1
  Cd  Cd86  1  0.16963929  0.49657990  0.66327224  1
  Cd  Cd87  1  0.16628464  0.83282410  0.00012281  1
  Cd  Cd88  1  0.16545043  0.83350846  0.33386870  1
  Cd  Cd89  1  0.15758772  0.83320904  0.66719315  1
  Cd  Cd90  1  0.50925789  0.16627105  0.00121790  1
  Cd  Cd91  1  0.49638277  0.17197521  0.32833309  1
  Cd  Cd92  1  0.49978409  0.16883091  0.66762987  1
  Cd  Cd93  1  0.50387026  0.49531523  0.00386747  1
  Cd  Cd94  1  0.50087450  0.49889124  0.33233197  1
  Cd  Cd95  1  0.50430616  0.50490541  0.67134987  1
  Cd  Cd96  1  0.50531258  0.82923380  0.99538219  1
  Cd  Cd97  1  0.49681381  0.83639657  0.32856549  1
  Cd  Cd98  1  0.50072640  0.83435125  0.66746507  1
  Cd  Cd99  1  0.82820876  0.16384500  0.00371970  1
  Cd  Cd100  1  0.82963605  0.17112712  0.32839467  1
  Cd  Cd101  1  0.83350935  0.16671592  0.66786550  1
  Cd  Cd102  1  0.83804930  0.49951762  0.99984208  1
  Cd  Cd103  1  0.82861557  0.49702154  0.33669493  1
  Cd  Cd104  1  0.83373224  0.49391047  0.66722942  1
  Cd  Cd105  1  0.83620378  0.83623953  0.99545358  1
  Cd  Cd106  1  0.82960508  0.82936107  0.33648172  1
  Cd  Cd107  1  0.83692461  0.82860326  0.66392652  1
  Se  Se108  1  0.08008352  0.75078042  0.74876884  1
  Se  Se109  1  0.42058317  0.41539771  0.08470254  1
  Se  Se110  1  0.74791450  0.08335548  0.08255364  1
  Se  Se111  1  0.75084228  0.41478764  0.41595083  1
  Se  Se112  1  0.75040277  0.41867091  0.75182437  1
  Se  Se113  1  0.75222932  0.74923104  0.41842873  1
  Se  Se114  1  0.08434996  0.25150255  0.58311880  1
  Se  Se115  1  0.08339153  0.91547402  0.58434512  1
  Se  Se116  1  0.41672724  0.25300926  0.24788098  1
  Se  Se117  1  0.41746658  0.91759929  0.24967350  1
  Se  Se118  1  0.74769571  0.24993713  0.24808469  1
  Se  Se119  1  0.74972168  0.91647680  0.91954455  1
  Se  Se120  1  0.24720980  0.08346512  0.58352083  1
  Se  Se121  1  0.25286719  0.41525500  0.24885229  1
  Se  Se122  1  0.24840367  0.41554053  0.58355609  1
  Se  Se123  1  0.58612981  0.08331042  0.91983764  1
  Se  Se124  1  0.58400656  0.41857168  0.91809117  1
  Se  Se125  1  0.58576047  0.74836366  0.91653420  1
  Se  Se126  1  0.91536073  0.41579170  0.58415400  1
  Se  Se127  1  0.91456969  0.41813749  0.91629102  1
  Se  Se128  1  0.91791106  0.75051426  0.58382493  1
  Se  Se129  1  0.91582564  0.75099782  0.91770749  1
  Se  Se130  1  0.58422771  0.25050456  0.08317374  1
  Se  Se131  1  0.58279843  0.58194224  0.08030260  1
  Se  Se132  1  0.58580587  0.58178843  0.75375949  1
  Se  Se133  1  0.91533457  0.58288149  0.08014660  1
  Se  Se134  1  0.91261016  0.91657088  0.08113885  1
  Te  Te135  1  0.08208128  0.08254461  0.08267924  1
  Te  Te136  1  0.08340246  0.08293347  0.42019082  1
  Te  Te137  1  0.08325504  0.08396875  0.74683602  1
  Te  Te138  1  0.08113762  0.41733059  0.08323089  1
  Te  Te139  1  0.08430586  0.41688696  0.41958018  1
  Te  Te140  1  0.08166259  0.41585981  0.74757446  1
  Te  Te141  1  0.07932807  0.74958726  0.08250415  1
  Te  Te142  1  0.08157920  0.75068116  0.41917275  1
  Te  Te143  1  0.41962743  0.08476259  0.08433724  1
  Te  Te144  1  0.41645951  0.08429924  0.41467653  1
  Te  Te145  1  0.41682537  0.08296979  0.75035889  1
  Te  Te146  1  0.41456246  0.41532553  0.41526877  1
  Te  Te147  1  0.41838636  0.41769134  0.75015132  1
  Te  Te148  1  0.41935223  0.75013239  0.08316430  1
  Te  Te149  1  0.41704640  0.75080437  0.41556896  1
  Te  Te150  1  0.42002805  0.74835685  0.75179270  1
  Te  Te151  1  0.75060088  0.08503848  0.41546317  1
  Te  Te152  1  0.74948948  0.08243754  0.75226782  1
  Te  Te153  1  0.74838089  0.41716204  0.08204586  1
  Te  Te154  1  0.75148782  0.74914671  0.07913096  1
  Te  Te155  1  0.74991797  0.74976688  0.75243401  1
  Te  Te156  1  0.08464066  0.25111374  0.24993160  1
  Te  Te157  1  0.08126754  0.25076991  0.91711905  1
  Te  Te158  1  0.08335647  0.58126111  0.24980742  1
  Te  Te159  1  0.08123009  0.58310493  0.58498372  1
  Te  Te160  1  0.07940974  0.58493474  0.91591258  1
  Te  Te161  1  0.08144810  0.91699137  0.24869316  1
  Te  Te162  1  0.08051450  0.91450557  0.91592039  1
  Te  Te163  1  0.41410826  0.24987639  0.58264850  1
  Te  Te164  1  0.42074660  0.25060352  0.91969205  1
  Te  Te165  1  0.41712218  0.58062276  0.24715426  1
  Te  Te166  1  0.41618849  0.58159558  0.58344471  1
  Te  Te167  1  0.42200875  0.58194703  0.91865799  1
  Te  Te168  1  0.41588384  0.91853841  0.58382009  1
  Te  Te169  1  0.41934360  0.91707238  0.91686944  1
  Te  Te170  1  0.75210336  0.25351438  0.58312985  1
  Te  Te171  1  0.74791433  0.25182928  0.91777679  1
  Te  Te172  1  0.74949928  0.58345604  0.24929345  1
  Te  Te173  1  0.75159688  0.58240733  0.58371672  1
  Te  Te174  1  0.74887596  0.58182975  0.91706258  1
  Te  Te175  1  0.75167360  0.91701765  0.24862531  1
  Te  Te176  1  0.75105686  0.91426179  0.58256718  1
  Te  Te177  1  0.25262957  0.08415603  0.25014674  1
  Te  Te178  1  0.25002373  0.08381146  0.91670352  1
  Te  Te179  1  0.25147639  0.41611288  0.91759743  1
  Te  Te180  1  0.25099779  0.75094409  0.24941994  1
  Te  Te181  1  0.24690907  0.75084025  0.58531749  1
  Te  Te182  1  0.24875507  0.74855518  0.91449365  1
  Te  Te183  1  0.58287898  0.08633149  0.24677693  1
  Te  Te184  1  0.58372259  0.08375226  0.58431649  1
  Te  Te185  1  0.58371623  0.41413179  0.24677246  1
  Te  Te186  1  0.58515573  0.41845111  0.58497477  1
  Te  Te187  1  0.58366934  0.74895379  0.24921757  1
  Te  Te188  1  0.58553480  0.74838538  0.58430112  1
  Te  Te189  1  0.91403311  0.08339688  0.24777295  1
  Te  Te190  1  0.91893475  0.08397646  0.58385200  1
  Te  Te191  1  0.91385748  0.08125141  0.91788616  1
  Te  Te192  1  0.91424003  0.41744094  0.24965168  1
  Te  Te193  1  0.91490086  0.74922607  0.24829287  1
  Te  Te194  1  0.25220880  0.25261755  0.08531200  1
  Te  Te195  1  0.25040430  0.25185629  0.41756390  1
  Te  Te196  1  0.24945196  0.25026999  0.74651934  1
  Te  Te197  1  0.25174786  0.58051500  0.08456080  1
  Te  Te198  1  0.25016319  0.58054581  0.41633212  1
  Te  Te199  1  0.24837265  0.58350931  0.75008414  1
  Te  Te200  1  0.25184922  0.91607408  0.08444129  1
  Te  Te201  1  0.24952018  0.91844155  0.41776302  1
  Te  Te202  1  0.24795011  0.91597628  0.74773494  1
  Te  Te203  1  0.58446883  0.25199135  0.41371313  1
  Te  Te204  1  0.58470375  0.25198865  0.75294772  1
  Te  Te205  1  0.58664025  0.58274502  0.41601819  1
  Te  Te206  1  0.58501211  0.91769545  0.08031784  1
  Te  Te207  1  0.58405449  0.91497073  0.41505245  1
  Te  Te208  1  0.58511122  0.91635718  0.75472042  1
  Te  Te209  1  0.91358547  0.25079338  0.08301762  1
  Te  Te210  1  0.91498967  0.25181784  0.41737907  1
  Te  Te211  1  0.91546298  0.25417669  0.75002592  1
  Te  Te212  1  0.91381560  0.58336862  0.41883659  1
  Te  Te213  1  0.91572440  0.58332256  0.75011232  1
  Te  Te214  1  0.91705567  0.91383600  0.41826193  1
  Te  Te215  1  0.91767148  0.91306966  0.75069697  1
  O  O216  1  0.50011291  0.50001068  0.50006865  1
  As  As217  1  0.63248080  0.29953035  0.56582682  1
  O  O218  1  0.69974081  0.69948419  0.56700777  1
