# generated using pymatgen
data_Cd107(Te3Se)27
_symmetry_space_group_name_H-M   'P 1'
_cell_length_a   19.56885388
_cell_length_b   19.56453553
_cell_length_c   19.56721656
_cell_angle_alpha   90.00225732
_cell_angle_beta   89.99767949
_cell_angle_gamma   90.00013634
_symmetry_Int_Tables_number   1
_chemical_formula_structural   Cd107(Te3Se)27
_chemical_formula_sum   'Cd107 Te81 Se27'
_cell_volume   7491.41719102
_cell_formula_units_Z   1
loop_
 _symmetry_equiv_pos_site_id
 _symmetry_equiv_pos_as_xyz
  1  'x, y, z'
loop_
 _atom_site_type_symbol
 _atom_site_label
 _atom_site_symmetry_multiplicity
 _atom_site_fract_x
 _atom_site_fract_y
 _atom_site_fract_z
 _atom_site_occupancy
  Cd  Cd0  1  0.99520253  0.99536921  0.00308054  1
  Cd  Cd1  1  0.99838542  0.00037366  0.33455947  1
  Cd  Cd2  1  0.00310107  0.99475993  0.66402883  1
  Cd  Cd3  1  0.99426894  0.33750715  0.99635049  1
  Cd  Cd4  1  0.99996664  0.33427554  0.33375170  1
  Cd  Cd5  1  0.99974193  0.33312374  0.65885700  1
  Cd  Cd6  1  0.99148941  0.66683777  0.99933334  1
  Cd  Cd7  1  0.99930727  0.66598418  0.33380960  1
  Cd  Cd8  1  0.99892922  0.67196365  0.66729940  1
  Cd  Cd9  1  0.33480848  0.00076129  0.00084356  1
  Cd  Cd10  1  0.33720305  0.99633820  0.33013227  1
  Cd  Cd11  1  0.32818290  0.00458396  0.66383937  1
  Cd  Cd12  1  0.33900180  0.33732996  0.00446326  1
  Cd  Cd13  1  0.33347211  0.33247781  0.32671152  1
  Cd  Cd14  1  0.33046299  0.33817807  0.66329596  1
  Cd  Cd15  1  0.33463362  0.66621604  0.99967504  1
  Cd  Cd16  1  0.33397428  0.66529690  0.33312188  1
  Cd  Cd17  1  0.33340037  0.66717060  0.66684413  1
  Cd  Cd18  1  0.67070209  0.00361411  0.99747144  1
  Cd  Cd19  1  0.66627197  0.00124611  0.33133138  1
  Cd  Cd20  1  0.66729067  0.99818129  0.66693187  1
  Cd  Cd21  1  0.65913203  0.33429789  0.99955798  1
  Cd  Cd22  1  0.67363670  0.33407914  0.33140898  1
  Cd  Cd23  1  0.67171546  0.33692937  0.67221990  1
  Cd  Cd24  1  0.66045740  0.66559451  0.99908113  1
  Cd  Cd25  1  0.67126647  0.67100356  0.33602180  1
  Cd  Cd26  1  0.66466391  0.66131170  0.67231975  1
  Cd  Cd27  1  0.99941888  0.16808918  0.16592167  1
  Cd  Cd28  1  0.00333969  0.17206337  0.50348641  1
  Cd  Cd29  1  0.99866002  0.16593005  0.83226566  1
  Cd  Cd30  1  0.99453218  0.50426996  0.16181104  1
  Cd  Cd31  1  0.99518653  0.49725712  0.50456663  1
  Cd  Cd32  1  0.99577905  0.49670760  0.83565924  1
  Cd  Cd33  1  0.99416951  0.83771210  0.16245745  1
  Cd  Cd34  1  0.99979059  0.83376336  0.50843774  1
  Cd  Cd35  1  0.99886674  0.82498642  0.83403957  1
  Cd  Cd36  1  0.33825655  0.17085410  0.17019187  1
  Cd  Cd37  1  0.32876615  0.16227008  0.50229896  1
  Cd  Cd38  1  0.33458553  0.16875827  0.83321924  1
  Cd  Cd39  1  0.33472532  0.49121561  0.16646866  1
  Cd  Cd40  1  0.32991200  0.49473387  0.50372670  1
  Cd  Cd41  1  0.33461597  0.50135015  0.83409099  1
  Cd  Cd42  1  0.33835335  0.83635232  0.16998891  1
  Cd  Cd43  1  0.33222398  0.83272743  0.50027466  1
  Cd  Cd44  1  0.33396284  0.83419783  0.83260018  1
  Cd  Cd45  1  0.66928403  0.17093249  0.16177575  1
  Cd  Cd46  1  0.66708743  0.16818089  0.49991032  1
  Cd  Cd47  1  0.66329763  0.16360446  0.83794521  1
  Cd  Cd48  1  0.66265166  0.50399537  0.16226223  1
  Cd  Cd49  1  0.67167997  0.49597131  0.49598215  1
  Cd  Cd50  1  0.66487791  0.49631086  0.83173849  1
  Cd  Cd51  1  0.66778394  0.83265350  0.16492003  1
  Cd  Cd52  1  0.67038748  0.82849494  0.49593406  1
  Cd  Cd53  1  0.66853717  0.83317319  0.84192726  1
  Cd  Cd54  1  0.16779136  0.00093661  0.16682948  1
  Cd  Cd55  1  0.16621294  0.99924978  0.50763682  1
  Cd  Cd56  1  0.16585788  0.00000498  0.83319628  1
  Cd  Cd57  1  0.16993041  0.33792489  0.16995473  1
  Cd  Cd58  1  0.16646242  0.33274917  0.50658003  1
  Cd  Cd59  1  0.16621066  0.33331435  0.83216171  1
  Cd  Cd60  1  0.16625556  0.66670792  0.16618385  1
  Cd  Cd61  1  0.16576591  0.66521135  0.49988684  1
  Cd  Cd62  1  0.16024538  0.67001222  0.82822855  1
  Cd  Cd63  1  0.49788977  0.99652691  0.16877357  1
  Cd  Cd64  1  0.50051885  0.00035149  0.49898979  1
  Cd  Cd65  1  0.50456385  0.00468674  0.83822486  1
  Cd  Cd66  1  0.49794137  0.32898768  0.16254240  1
  Cd  Cd67  1  0.50040790  0.33347875  0.50049147  1
  Cd  Cd68  1  0.50390767  0.33816882  0.83879119  1
  Cd  Cd69  1  0.50432895  0.66129376  0.16240199  1
  Cd  Cd70  1  0.50933860  0.66591050  0.83474520  1
  Cd  Cd71  1  0.83236579  0.00026511  0.15810618  1
  Cd  Cd72  1  0.83423576  0.00101492  0.49954028  1
  Cd  Cd73  1  0.82949857  0.99386758  0.83667615  1
  Cd  Cd74  1  0.82788194  0.33018115  0.17016185  1
  Cd  Cd75  1  0.83394287  0.34075858  0.50001648  1
  Cd  Cd76  1  0.83163390  0.34064313  0.83424792  1
  Cd  Cd77  1  0.83568732  0.66214429  0.16187991  1
  Cd  Cd78  1  0.83441172  0.67354131  0.50190977  1
  Cd  Cd79  1  0.83565248  0.66988058  0.83821922  1
  Cd  Cd80  1  0.16685967  0.16803228  0.00105025  1
  Cd  Cd81  1  0.16728869  0.16612858  0.33488110  1
  Cd  Cd82  1  0.16633515  0.16742797  0.65971931  1
  Cd  Cd83  1  0.16540571  0.50098549  0.99917034  1
  Cd  Cd84  1  0.17051254  0.49467035  0.32963674  1
  Cd  Cd85  1  0.16942689  0.49655477  0.66329627  1
  Cd  Cd86  1  0.16632075  0.83283685  0.00014734  1
  Cd  Cd87  1  0.16560386  0.83363799  0.33427889  1
  Cd  Cd88  1  0.15795082  0.83329777  0.66717394  1
  Cd  Cd89  1  0.50953090  0.16652885  0.00115702  1
  Cd  Cd90  1  0.49649362  0.17209765  0.32788522  1
  Cd  Cd91  1  0.49985358  0.16909067  0.66785697  1
  Cd  Cd92  1  0.50403580  0.49552747  0.00369864  1
  Cd  Cd93  1  0.50122653  0.49900447  0.33267685  1
  Cd  Cd94  1  0.50488298  0.50458122  0.67094780  1
  Cd  Cd95  1  0.50516592  0.82868802  0.99545437  1
  Cd  Cd96  1  0.49684450  0.83647991  0.32832307  1
  Cd  Cd97  1  0.50095017  0.83426334  0.66748428  1
  Cd  Cd98  1  0.82822750  0.16333094  0.00336439  1
  Cd  Cd99  1  0.82930593  0.17167129  0.32867369  1
  Cd  Cd100  1  0.83316571  0.16701456  0.66807054  1
  Cd  Cd101  1  0.83839065  0.49931115  0.99957558  1
  Cd  Cd102  1  0.82842759  0.49639736  0.33690495  1
  Cd  Cd103  1  0.83376500  0.49404690  0.66730488  1
  Cd  Cd104  1  0.83556595  0.83638953  0.99562710  1
  Cd  Cd105  1  0.82965324  0.82944719  0.33672464  1
  Cd  Cd106  1  0.83697374  0.82853209  0.66375480  1
  Se  Se107  1  0.08001770  0.75090836  0.74856778  1
  Se  Se108  1  0.42060902  0.41538012  0.08468956  1
  Se  Se109  1  0.74814160  0.08352853  0.08285819  1
  Se  Se110  1  0.75056076  0.41497455  0.41616441  1
  Se  Se111  1  0.75038028  0.41872851  0.75190822  1
  Se  Se112  1  0.75211639  0.74915920  0.41832782  1
  Se  Se113  1  0.08464200  0.25151473  0.58342042  1
  Se  Se114  1  0.08332434  0.91556837  0.58420735  1
  Se  Se115  1  0.41709044  0.25308141  0.24775766  1
  Se  Se116  1  0.41744557  0.91730289  0.24955621  1
  Se  Se117  1  0.74773170  0.24960079  0.24813791  1
  Se  Se118  1  0.74982363  0.91645185  0.91943027  1
  Se  Se119  1  0.24728124  0.08402415  0.58331342  1
  Se  Se120  1  0.25260410  0.41547001  0.24869907  1
  Se  Se121  1  0.24825073  0.41550865  0.58350571  1
  Se  Se122  1  0.58629172  0.08339412  0.91974470  1
  Se  Se123  1  0.58412827  0.41865996  0.91778223  1
  Se  Se124  1  0.58587167  0.74822957  0.91632413  1
  Se  Se125  1  0.91576601  0.41577351  0.58399097  1
  Se  Se126  1  0.91462364  0.41777467  0.91616541  1
  Se  Se127  1  0.91804742  0.75035706  0.58391874  1
  Se  Se128  1  0.91564876  0.75076638  0.91778122  1
  Se  Se129  1  0.58435729  0.25043916  0.08275647  1
  Se  Se130  1  0.58289803  0.58183066  0.07994308  1
  Se  Se131  1  0.58551246  0.58161812  0.75378195  1
  Se  Se132  1  0.91554212  0.58308196  0.07988443  1
  Se  Se133  1  0.91280011  0.91658386  0.08048151  1
  Te  Te134  1  0.08179955  0.08219704  0.08281203  1
  Te  Te135  1  0.08349602  0.08309236  0.42025763  1
  Te  Te136  1  0.08357947  0.08380158  0.74679346  1
  Te  Te137  1  0.08140843  0.41762248  0.08340439  1
  Te  Te138  1  0.08406444  0.41676596  0.41954002  1
  Te  Te139  1  0.08156825  0.41590801  0.74755842  1
  Te  Te140  1  0.07917375  0.74976207  0.08241434  1
  Te  Te141  1  0.08144799  0.75094937  0.41931039  1
  Te  Te142  1  0.41997976  0.08501272  0.08394201  1
  Te  Te143  1  0.41613640  0.08447678  0.41463484  1
  Te  Te144  1  0.41707803  0.08299826  0.75059200  1
  Te  Te145  1  0.41475048  0.41528643  0.41547749  1
  Te  Te146  1  0.41848025  0.41783423  0.74976567  1
  Te  Te147  1  0.41982075  0.75001901  0.08330811  1
  Te  Te148  1  0.41743150  0.75075851  0.41575383  1
  Te  Te149  1  0.41985889  0.74798329  0.75164313  1
  Te  Te150  1  0.75066544  0.08518318  0.41522601  1
  Te  Te151  1  0.74938232  0.08247883  0.75243179  1
  Te  Te152  1  0.74830179  0.41719100  0.08210614  1
  Te  Te153  1  0.75124814  0.74908705  0.07898681  1
  Te  Te154  1  0.74961997  0.74997798  0.75234713  1
  Te  Te155  1  0.08446528  0.25108926  0.24992625  1
  Te  Te156  1  0.08153567  0.25100720  0.91727129  1
  Te  Te157  1  0.08306917  0.58129272  0.24981946  1
  Te  Te158  1  0.08154519  0.58310336  0.58482322  1
  Te  Te159  1  0.07958244  0.58475464  0.91557979  1
  Te  Te160  1  0.08144796  0.91717115  0.24864885  1
  Te  Te161  1  0.08090366  0.91438812  0.91630283  1
  Te  Te162  1  0.41403489  0.24988261  0.58271745  1
  Te  Te163  1  0.42075037  0.25062416  0.91946106  1
  Te  Te164  1  0.41714250  0.58068423  0.24686601  1
  Te  Te165  1  0.41654215  0.58163437  0.58373668  1
  Te  Te166  1  0.42228949  0.58216794  0.91840795  1
  Te  Te167  1  0.41561616  0.91830782  0.58383843  1
  Te  Te168  1  0.41930793  0.91694450  0.91660369  1
  Te  Te169  1  0.75128371  0.25346089  0.58342493  1
  Te  Te170  1  0.74767760  0.25178388  0.91778957  1
  Te  Te171  1  0.74927449  0.58346609  0.24934305  1
  Te  Te172  1  0.75181513  0.58245042  0.58374489  1
  Te  Te173  1  0.74884864  0.58131236  0.91717797  1
  Te  Te174  1  0.75183611  0.91719479  0.24857805  1
  Te  Te175  1  0.75110610  0.91471641  0.58225818  1
  Te  Te176  1  0.25268721  0.08391433  0.25004299  1
  Te  Te177  1  0.24999697  0.08393797  0.91640965  1
  Te  Te178  1  0.25113236  0.41639653  0.91787447  1
  Te  Te179  1  0.25088362  0.75111053  0.24991971  1
  Te  Te180  1  0.24696690  0.75081274  0.58483458  1
  Te  Te181  1  0.24897618  0.74874101  0.91466863  1
  Te  Te182  1  0.58306311  0.08640407  0.24701626  1
  Te  Te183  1  0.58373329  0.08381514  0.58405664  1
  Te  Te184  1  0.58419308  0.41408047  0.24685821  1
  Te  Te185  1  0.58589712  0.41783454  0.58484082  1
  Te  Te186  1  0.58385869  0.74903836  0.24886482  1
  Te  Te187  1  0.58527905  0.74841378  0.58440768  1
  Te  Te188  1  0.91402127  0.08342027  0.24774253  1
  Te  Te189  1  0.91933632  0.08352166  0.58411545  1
  Te  Te190  1  0.91370303  0.08127513  0.91799635  1
  Te  Te191  1  0.91428982  0.41737769  0.24965847  1
  Te  Te192  1  0.91491912  0.74919449  0.24823669  1
  Te  Te193  1  0.25217184  0.25251784  0.08534617  1
  Te  Te194  1  0.25043981  0.25176136  0.41760306  1
  Te  Te195  1  0.24958585  0.25041683  0.74679353  1
  Te  Te196  1  0.25183456  0.58089908  0.08450940  1
  Te  Te197  1  0.25010231  0.58068309  0.41654653  1
  Te  Te198  1  0.24843296  0.58312195  0.74977786  1
  Te  Te199  1  0.25185823  0.91619782  0.08436457  1
  Te  Te200  1  0.24911126  0.91870633  0.41793838  1
  Te  Te201  1  0.24762905  0.91641123  0.74761977  1
  Te  Te202  1  0.58457446  0.25185283  0.41414098  1
  Te  Te203  1  0.58455658  0.25191919  0.75267424  1
  Te  Te204  1  0.58623784  0.58295744  0.41609833  1
  Te  Te205  1  0.58508429  0.91764876  0.08013753  1
  Te  Te206  1  0.58377108  0.91522891  0.41503319  1
  Te  Te207  1  0.58518642  0.91622415  0.75474118  1
  Te  Te208  1  0.91341664  0.25053382  0.08285668  1
  Te  Te209  1  0.91518214  0.25190362  0.41705302  1
  Te  Te210  1  0.91602962  0.25456663  0.75025088  1
  Te  Te211  1  0.91379067  0.58334257  0.41882907  1
  Te  Te212  1  0.91613482  0.58367024  0.75027757  1
  Te  Te213  1  0.91683217  0.91379214  0.41855688  1
  Te  Te214  1  0.91742159  0.91293962  0.75061472  1
