# generated using pymatgen
data_Cd108Te81AsSe27O2
_symmetry_space_group_name_H-M   'P 1'
_cell_length_a   19.56885388
_cell_length_b   19.56453553
_cell_length_c   19.56721656
_cell_angle_alpha   90.00225732
_cell_angle_beta   89.99767949
_cell_angle_gamma   90.00013634
_symmetry_Int_Tables_number   1
_chemical_formula_structural   Cd108Te81AsSe27O2
_chemical_formula_sum   'Cd108 Te81 As1 Se27 O2'
_cell_volume   7491.41719102
_cell_formula_units_Z   1
loop_
 _symmetry_equiv_pos_site_id
 _symmetry_equiv_pos_as_xyz
  1  'x, y, z'
loop_
 _atom_site_type_symbol
 _atom_site_label
 _atom_site_symmetry_multiplicity
 _atom_site_fract_x
 _atom_site_fract_y
 _atom_site_fract_z
 _atom_site_occupancy
  Cd  Cd0  1  0.99490177  0.99512840  0.00289301  1
  Cd  Cd1  1  0.99856293  0.00044352  0.33427834  1
  Cd  Cd2  1  0.00307755  0.99474642  0.66386171  1
  Cd  Cd3  1  0.99426630  0.33737071  0.99617960  1
  Cd  Cd4  1  0.99998043  0.33428801  0.33374531  1
  Cd  Cd5  1  0.99966541  0.33283121  0.65897785  1
  Cd  Cd6  1  0.99142071  0.66708153  0.99917077  1
  Cd  Cd7  1  0.99952864  0.66601471  0.33327433  1
  Cd  Cd8  1  0.99879566  0.67195578  0.66706555  1
  Cd  Cd9  1  0.33501668  0.00074000  0.00098443  1
  Cd  Cd10  1  0.33696607  0.99633084  0.33010029  1
  Cd  Cd11  1  0.32821980  0.00459103  0.66384410  1
  Cd  Cd12  1  0.33916478  0.33753123  0.00439529  1
  Cd  Cd13  1  0.33380503  0.33241100  0.32661519  1
  Cd  Cd14  1  0.33070665  0.33825800  0.66383276  1
  Cd  Cd15  1  0.33464694  0.66594945  0.99928647  1
  Cd  Cd16  1  0.33400326  0.66502451  0.33276136  1
  Cd  Cd17  1  0.33329259  0.66693658  0.66695653  1
  Cd  Cd18  1  0.67113764  0.00326629  0.99742193  1
  Cd  Cd19  1  0.66639417  0.00128521  0.33192096  1
  Cd  Cd20  1  0.66720079  0.99838749  0.66758438  1
  Cd  Cd21  1  0.65927636  0.33408007  0.99991540  1
  Cd  Cd22  1  0.67365587  0.33351084  0.33148003  1
  Cd  Cd23  1  0.67186256  0.33689042  0.67275610  1
  Cd  Cd24  1  0.66059933  0.66580364  0.99913174  1
  Cd  Cd25  1  0.67105913  0.67118307  0.33672936  1
  Cd  Cd26  1  0.66468789  0.66110970  0.67175502  1
  Cd  Cd27  1  0.00004266  0.16799198  0.16584537  1
  Cd  Cd28  1  0.00344128  0.17200672  0.50349076  1
  Cd  Cd29  1  0.99857706  0.16610715  0.83281941  1
  Cd  Cd30  1  0.99470675  0.50430617  0.16240080  1
  Cd  Cd31  1  0.99527393  0.49731177  0.50449859  1
  Cd  Cd32  1  0.99620352  0.49626915  0.83529313  1
  Cd  Cd33  1  0.99405065  0.83756401  0.16242769  1
  Cd  Cd34  1  0.00002961  0.83393843  0.50820903  1
  Cd  Cd35  1  0.99906963  0.82477941  0.83377276  1
  Cd  Cd36  1  0.33822453  0.17101722  0.17008274  1
  Cd  Cd37  1  0.32865923  0.16230624  0.50239990  1
  Cd  Cd38  1  0.33480666  0.16871466  0.83344350  1
  Cd  Cd39  1  0.33497551  0.49126090  0.16602838  1
  Cd  Cd40  1  0.32943278  0.49461796  0.50395473  1
  Cd  Cd41  1  0.33474760  0.50126768  0.83382855  1
  Cd  Cd42  1  0.33887698  0.83643640  0.16999488  1
  Cd  Cd43  1  0.33261970  0.83274793  0.50023470  1
  Cd  Cd44  1  0.33399118  0.83404230  0.83250906  1
  Cd  Cd45  1  0.66914296  0.17077548  0.16139690  1
  Cd  Cd46  1  0.66669842  0.16797464  0.49975851  1
  Cd  Cd47  1  0.66307771  0.16341212  0.83799610  1
  Cd  Cd48  1  0.66276936  0.50404712  0.16229501  1
  Cd  Cd49  1  0.67149025  0.49605829  0.49646209  1
  Cd  Cd50  1  0.66491801  0.49658059  0.83162982  1
  Cd  Cd51  1  0.66778981  0.83292978  0.16529723  1
  Cd  Cd52  1  0.67069170  0.82884516  0.49586889  1
  Cd  Cd53  1  0.66823142  0.83277968  0.84209226  1
  Cd  Cd54  1  0.16728289  0.00093555  0.16688567  1
  Cd  Cd55  1  0.16619988  0.99923453  0.50754687  1
  Cd  Cd56  1  0.16541818  0.99989436  0.83329969  1
  Cd  Cd57  1  0.16965347  0.33777913  0.17021359  1
  Cd  Cd58  1  0.16664783  0.33258792  0.50654207  1
  Cd  Cd59  1  0.16595392  0.33299838  0.83204131  1
  Cd  Cd60  1  0.16604795  0.66707485  0.16566286  1
  Cd  Cd61  1  0.16611812  0.66525512  0.49994108  1
  Cd  Cd62  1  0.16056611  0.66999600  0.82808583  1
  Cd  Cd63  1  0.49822287  0.99631798  0.16883868  1
  Cd  Cd64  1  0.50056472  0.00036881  0.49876011  1
  Cd  Cd65  1  0.50477021  0.00500073  0.83805830  1
  Cd  Cd66  1  0.49811177  0.32885768  0.16265314  1
  Cd  Cd67  1  0.50028050  0.33370228  0.50002901  1
  Cd  Cd68  1  0.50388824  0.33791712  0.83880251  1
  Cd  Cd69  1  0.50457858  0.66140026  0.16218262  1
  Cd  Cd70  1  0.50034468  0.66582450  0.49982637  1
  Cd  Cd71  1  0.50891537  0.66584640  0.83438818  1
  Cd  Cd72  1  0.83232972  0.00032227  0.15805793  1
  Cd  Cd73  1  0.83438580  0.00066970  0.49996390  1
  Cd  Cd74  1  0.82941608  0.99394700  0.83678926  1
  Cd  Cd75  1  0.82766993  0.33040944  0.17025842  1
  Cd  Cd76  1  0.83379903  0.34086607  0.49962999  1
  Cd  Cd77  1  0.83162765  0.34075050  0.83438030  1
  Cd  Cd78  1  0.83628401  0.66221593  0.16156368  1
  Cd  Cd79  1  0.83416439  0.67347124  0.50191001  1
  Cd  Cd80  1  0.83584547  0.66923163  0.83827759  1
  Cd  Cd81  1  0.16726969  0.16815329  0.00134425  1
  Cd  Cd82  1  0.16738198  0.16617053  0.33503546  1
  Cd  Cd83  1  0.16610739  0.16724969  0.65977723  1
  Cd  Cd84  1  0.16572152  0.50117053  0.99893617  1
  Cd  Cd85  1  0.17081132  0.49450423  0.32964078  1
  Cd  Cd86  1  0.16964594  0.49657536  0.66326827  1
  Cd  Cd87  1  0.16627900  0.83282598  0.00011703  1
  Cd  Cd88  1  0.16544777  0.83350359  0.33387675  1
  Cd  Cd89  1  0.15758179  0.83320639  0.66718375  1
  Cd  Cd90  1  0.50926079  0.16627166  0.00121500  1
  Cd  Cd91  1  0.49640073  0.17200625  0.32835127  1
  Cd  Cd92  1  0.49977501  0.16882483  0.66762514  1
  Cd  Cd93  1  0.50388519  0.49531762  0.00386476  1
  Cd  Cd94  1  0.50085479  0.49887712  0.33240973  1
  Cd  Cd95  1  0.50444814  0.50474522  0.67116792  1
  Cd  Cd96  1  0.50532279  0.82922371  0.99537228  1
  Cd  Cd97  1  0.49680783  0.83639451  0.32856704  1
  Cd  Cd98  1  0.50079505  0.83427289  0.66741121  1
  Cd  Cd99  1  0.82821046  0.16384255  0.00372574  1
  Cd  Cd100  1  0.82963149  0.17112492  0.32839984  1
  Cd  Cd101  1  0.83340732  0.16681704  0.66776684  1
  Cd  Cd102  1  0.83805382  0.49951795  0.99983764  1
  Cd  Cd103  1  0.82863938  0.49703306  0.33666219  1
  Cd  Cd104  1  0.83371417  0.49396036  0.66720431  1
  Cd  Cd105  1  0.83620674  0.83623633  0.99544386  1
  Cd  Cd106  1  0.82958163  0.82933441  0.33650482  1
  Cd  Cd107  1  0.83691959  0.82859503  0.66392869  1
  Se  Se108  1  0.08008916  0.75078731  0.74877581  1
  Se  Se109  1  0.42057433  0.41539728  0.08470344  1
  Se  Se110  1  0.74791748  0.08335918  0.08256195  1
  Se  Se111  1  0.75082939  0.41478459  0.41597185  1
  Se  Se112  1  0.75039651  0.41863273  0.75181228  1
  Se  Se113  1  0.75223849  0.74922298  0.41846401  1
  Se  Se114  1  0.08434139  0.25149974  0.58311696  1
  Se  Se115  1  0.08339637  0.91547837  0.58434692  1
  Se  Se116  1  0.41671412  0.25299390  0.24786286  1
  Se  Se117  1  0.41745893  0.91760112  0.24966932  1
  Se  Se118  1  0.74770718  0.24994505  0.24808985  1
  Se  Se119  1  0.74972216  0.91647662  0.91955024  1
  Se  Se120  1  0.24721225  0.08346966  0.58352451  1
  Se  Se121  1  0.25284908  0.41524997  0.24883613  1
  Se  Se122  1  0.24839351  0.41553351  0.58355433  1
  Se  Se123  1  0.58612714  0.08331964  0.91982480  1
  Se  Se124  1  0.58401160  0.41856279  0.91807166  1
  Se  Se125  1  0.58576393  0.74836707  0.91654600  1
  Se  Se126  1  0.91538328  0.41579109  0.58416118  1
  Se  Se127  1  0.91457465  0.41813209  0.91629347  1
  Se  Se128  1  0.91796063  0.75054627  0.58383231  1
  Se  Se129  1  0.91582951  0.75100133  0.91771028  1
  Se  Se130  1  0.58422675  0.25050427  0.08317870  1
  Se  Se131  1  0.58279361  0.58194681  0.08029930  1
  Se  Se132  1  0.58577028  0.58174495  0.75381361  1
  Se  Se133  1  0.91534360  0.58287811  0.08014968  1
  Se  Se134  1  0.91262155  0.91657618  0.08114090  1
  Te  Te135  1  0.08208364  0.08254381  0.08268266  1
  Te  Te136  1  0.08339783  0.08293705  0.42019225  1
  Te  Te137  1  0.08324930  0.08396920  0.74683210  1
  Te  Te138  1  0.08113408  0.41733429  0.08323018  1
  Te  Te139  1  0.08430311  0.41688429  0.41957624  1
  Te  Te140  1  0.08166178  0.41585252  0.74757669  1
  Te  Te141  1  0.07932875  0.74958878  0.08250457  1
  Te  Te142  1  0.08158002  0.75068402  0.41917222  1
  Te  Te143  1  0.41962588  0.08475773  0.08433978  1
  Te  Te144  1  0.41645217  0.08429317  0.41465746  1
  Te  Te145  1  0.41681111  0.08296212  0.75037568  1
  Te  Te146  1  0.41460737  0.41527159  0.41528158  1
  Te  Te147  1  0.41837784  0.41769731  0.75017113  1
  Te  Te148  1  0.41935169  0.75013399  0.08316326  1
  Te  Te149  1  0.41703485  0.75080631  0.41554896  1
  Te  Te150  1  0.42001700  0.74836698  0.75180777  1
  Te  Te151  1  0.75060942  0.08503615  0.41544012  1
  Te  Te152  1  0.74950416  0.08242580  0.75229154  1
  Te  Te153  1  0.74838229  0.41716107  0.08204836  1
  Te  Te154  1  0.75148944  0.74914807  0.07913154  1
  Te  Te155  1  0.74994265  0.74977475  0.75250268  1
  Te  Te156  1  0.08464239  0.25111362  0.24992886  1
  Te  Te157  1  0.08126488  0.25077019  0.91712476  1
  Te  Te158  1  0.08335532  0.58125847  0.24980201  1
  Te  Te159  1  0.08122774  0.58310230  0.58498226  1
  Te  Te160  1  0.07941265  0.58493466  0.91591599  1
  Te  Te161  1  0.08144717  0.91699551  0.24868360  1
  Te  Te162  1  0.08051479  0.91450243  0.91592427  1
  Te  Te163  1  0.41407229  0.24987993  0.58263364  1
  Te  Te164  1  0.42074180  0.25060383  0.91969003  1
  Te  Te165  1  0.41711722  0.58062171  0.24714342  1
  Te  Te166  1  0.41610768  0.58168703  0.58350210  1
  Te  Te167  1  0.42200028  0.58193997  0.91866450  1
  Te  Te168  1  0.41585405  0.91856524  0.58382058  1
  Te  Te169  1  0.41934517  0.91707693  0.91686979  1
  Te  Te170  1  0.75251382  0.25328856  0.58303505  1
  Te  Te171  1  0.74792355  0.25182591  0.91777425  1
  Te  Te172  1  0.74949967  0.58345739  0.24928804  1
  Te  Te173  1  0.75174611  0.58219283  0.58378452  1
  Te  Te174  1  0.74888318  0.58183018  0.91706495  1
  Te  Te175  1  0.75167632  0.91702478  0.24862002  1
  Te  Te176  1  0.75106507  0.91427773  0.58255002  1
  Te  Te177  1  0.25263153  0.08415335  0.25014588  1
  Te  Te178  1  0.25002117  0.08381359  0.91670845  1
  Te  Te179  1  0.25147635  0.41611176  0.91760222  1
  Te  Te180  1  0.25099722  0.75094993  0.24941419  1
  Te  Te181  1  0.24689094  0.75085089  0.58532175  1
  Te  Te182  1  0.24874815  0.74855149  0.91449198  1
  Te  Te183  1  0.58287719  0.08632939  0.24677639  1
  Te  Te184  1  0.58373397  0.08376036  0.58429150  1
  Te  Te185  1  0.58372197  0.41413429  0.24677224  1
  Te  Te186  1  0.58510201  0.41829263  0.58478871  1
  Te  Te187  1  0.58367107  0.74896008  0.24920747  1
  Te  Te188  1  0.58504362  0.74858349  0.58439719  1
  Te  Te189  1  0.91403346  0.08340147  0.24777503  1
  Te  Te190  1  0.91895748  0.08396861  0.58385412  1
  Te  Te191  1  0.91386001  0.08125124  0.91788322  1
  Te  Te192  1  0.91424590  0.41743729  0.24964897  1
  Te  Te193  1  0.91490384  0.74922671  0.24828695  1
  Te  Te194  1  0.25220562  0.25261778  0.08531388  1
  Te  Te195  1  0.25039743  0.25185212  0.41755336  1
  Te  Te196  1  0.24944408  0.25027068  0.74652612  1
  Te  Te197  1  0.25174204  0.58051157  0.08456030  1
  Te  Te198  1  0.25015101  0.58054422  0.41632068  1
  Te  Te199  1  0.24836201  0.58351250  0.75009865  1
  Te  Te200  1  0.25184985  0.91607538  0.08444835  1
  Te  Te201  1  0.24951703  0.91844423  0.41776417  1
  Te  Te202  1  0.24794310  0.91597882  0.74773389  1
  Te  Te203  1  0.58441111  0.25196892  0.41361921  1
  Te  Te204  1  0.58476792  0.25204931  0.75296146  1
  Te  Te205  1  0.58663245  0.58272037  0.41593209  1
  Te  Te206  1  0.58501472  0.91769720  0.08031735  1
  Te  Te207  1  0.58406112  0.91498143  0.41502955  1
  Te  Te208  1  0.58510945  0.91637929  0.75475162  1
  Te  Te209  1  0.91358586  0.25079116  0.08301852  1
  Te  Te210  1  0.91502238  0.25180165  0.41734807  1
  Te  Te211  1  0.91548078  0.25417227  0.75004427  1
  Te  Te212  1  0.91380027  0.58338199  0.41885276  1
  Te  Te213  1  0.91571540  0.58331540  0.75010743  1
  Te  Te214  1  0.91706035  0.91384115  0.41826199  1
  Te  Te215  1  0.91767827  0.91307502  0.75069817  1
  O  O216  1  0.50027407  0.49993758  0.50005604  1
  As  As217  1  0.63239831  0.30004189  0.56622282  1
  O  O218  1  0.70027267  0.69967531  0.56675857  1
