# generated using pymatgen
data_Cd108Cu2(Te3Se)27
_symmetry_space_group_name_H-M   'P 1'
_cell_length_a   19.56885388
_cell_length_b   19.56453553
_cell_length_c   19.56721656
_cell_angle_alpha   90.00225732
_cell_angle_beta   89.99767949
_cell_angle_gamma   90.00013634
_symmetry_Int_Tables_number   1
_chemical_formula_structural   Cd108Cu2(Te3Se)27
_chemical_formula_sum   'Cd108 Cu2 Te81 Se27'
_cell_volume   7491.41719102
_cell_formula_units_Z   1
loop_
 _symmetry_equiv_pos_site_id
 _symmetry_equiv_pos_as_xyz
  1  'x, y, z'
loop_
 _atom_site_type_symbol
 _atom_site_label
 _atom_site_symmetry_multiplicity
 _atom_site_fract_x
 _atom_site_fract_y
 _atom_site_fract_z
 _atom_site_occupancy
  Cd  Cd0  1  0.99530808  0.99538751  0.00303678  1
  Cd  Cd1  1  0.99863052  0.00082479  0.33425621  1
  Cd  Cd2  1  0.00331050  0.99447919  0.66434154  1
  Cd  Cd3  1  0.99427364  0.33750296  0.99637140  1
  Cd  Cd4  1  0.99996290  0.33445576  0.33411406  1
  Cd  Cd5  1  0.99986505  0.33306081  0.65881385  1
  Cd  Cd6  1  0.99163337  0.66719260  0.99925369  1
  Cd  Cd7  1  0.99945575  0.66595909  0.33341100  1
  Cd  Cd8  1  0.99936746  0.67213206  0.66761235  1
  Cd  Cd9  1  0.33472172  0.00059646  0.00091795  1
  Cd  Cd10  1  0.33694854  0.99625449  0.33038778  1
  Cd  Cd11  1  0.32818048  0.00476825  0.66327462  1
  Cd  Cd12  1  0.33909824  0.33743202  0.00470304  1
  Cd  Cd13  1  0.33385049  0.33278984  0.32638632  1
  Cd  Cd14  1  0.33058637  0.33808108  0.66337443  1
  Cd  Cd15  1  0.33492664  0.66571620  0.99955554  1
  Cd  Cd16  1  0.33388466  0.66512356  0.33258423  1
  Cd  Cd17  1  0.33318435  0.66687471  0.66732296  1
  Cd  Cd18  1  0.67099422  0.00349708  0.99751912  1
  Cd  Cd19  1  0.66625814  0.00125902  0.33175095  1
  Cd  Cd20  1  0.66730943  0.99832287  0.66714085  1
  Cd  Cd21  1  0.65918709  0.33416530  0.99964635  1
  Cd  Cd22  1  0.67408684  0.33396332  0.33177795  1
  Cd  Cd23  1  0.67176527  0.33702636  0.67238439  1
  Cd  Cd24  1  0.66075226  0.66554940  0.99938882  1
  Cd  Cd25  1  0.67118608  0.67102127  0.33610729  1
  Cd  Cd26  1  0.66418197  0.66071178  0.67227549  1
  Cd  Cd27  1  0.99957989  0.16795810  0.16659716  1
  Cd  Cd28  1  0.00384126  0.17220561  0.50327138  1
  Cd  Cd29  1  0.99815543  0.16615835  0.83244383  1
  Cd  Cd30  1  0.99481713  0.50413988  0.16239304  1
  Cd  Cd31  1  0.99513833  0.49740209  0.50448962  1
  Cd  Cd32  1  0.99583877  0.49635005  0.83611093  1
  Cd  Cd33  1  0.99432882  0.83782419  0.16246550  1
  Cd  Cd34  1  0.99983973  0.83406285  0.50813114  1
  Cd  Cd35  1  0.99922088  0.82492055  0.83367553  1
  Cd  Cd36  1  0.33794692  0.17071946  0.17019368  1
  Cd  Cd37  1  0.32886550  0.16187978  0.50241084  1
  Cd  Cd38  1  0.33430205  0.16902671  0.83367681  1
  Cd  Cd39  1  0.33492390  0.49113216  0.16595156  1
  Cd  Cd40  1  0.32923597  0.49506052  0.50391584  1
  Cd  Cd41  1  0.33448807  0.50123765  0.83387618  1
  Cd  Cd42  1  0.33874205  0.83654931  0.16992967  1
  Cd  Cd43  1  0.33230107  0.83306980  0.50006745  1
  Cd  Cd44  1  0.33405085  0.83401536  0.83249668  1
  Cd  Cd45  1  0.66944805  0.17055986  0.16194481  1
  Cd  Cd46  1  0.66677286  0.16844721  0.49994147  1
  Cd  Cd47  1  0.66328476  0.16365089  0.83789824  1
  Cd  Cd48  1  0.66303845  0.50386319  0.16235537  1
  Cd  Cd49  1  0.67163730  0.49570806  0.49623538  1
  Cd  Cd50  1  0.66483903  0.49641669  0.83167254  1
  Cd  Cd51  1  0.66756538  0.83301693  0.16491731  1
  Cd  Cd52  1  0.67065112  0.82899315  0.49582587  1
  Cd  Cd53  1  0.66871948  0.83287504  0.84227195  1
  Cd  Cd54  1  0.16696110  0.00094728  0.16678779  1
  Cd  Cd55  1  0.16591648  0.99897132  0.50731893  1
  Cd  Cd56  1  0.16542962  0.99992350  0.83333319  1
  Cd  Cd57  1  0.16999628  0.33742062  0.16990855  1
  Cd  Cd58  1  0.16649380  0.33291881  0.50672349  1
  Cd  Cd59  1  0.16644437  0.33336400  0.83227117  1
  Cd  Cd60  1  0.16626081  0.66701852  0.16650557  1
  Cd  Cd61  1  0.16571612  0.66526222  0.49983968  1
  Cd  Cd62  1  0.15999232  0.66995971  0.82811345  1
  Cd  Cd63  1  0.49806752  0.99625488  0.16911126  1
  Cd  Cd64  1  0.50037464  0.00025914  0.49886989  1
  Cd  Cd65  1  0.50470317  0.00481492  0.83821805  1
  Cd  Cd66  1  0.49824120  0.32884974  0.16255791  1
  Cd  Cd67  1  0.50033017  0.33356041  0.50014930  1
  Cd  Cd68  1  0.50399168  0.33820527  0.83847028  1
  Cd  Cd69  1  0.50450227  0.66114490  0.16208744  1
  Cd  Cd70  1  0.50011768  0.66596375  0.49963090  1
  Cd  Cd71  1  0.50889611  0.66587503  0.83452497  1
  Cd  Cd72  1  0.83197813  0.00044756  0.15798464  1
  Cd  Cd73  1  0.83387599  0.00070155  0.49985449  1
  Cd  Cd74  1  0.82988477  0.99407025  0.83655795  1
  Cd  Cd75  1  0.82776530  0.33049942  0.17015540  1
  Cd  Cd76  1  0.83376812  0.34132923  0.49979200  1
  Cd  Cd77  1  0.83141563  0.34096268  0.83461823  1
  Cd  Cd78  1  0.83585181  0.66220855  0.16166229  1
  Cd  Cd79  1  0.83416561  0.67332618  0.50198563  1
  Cd  Cd80  1  0.83578399  0.66957570  0.83803757  1
  Cd  Cd81  1  0.16686776  0.16781354  0.00151361  1
  Cd  Cd82  1  0.16769213  0.16609388  0.33493985  1
  Cd  Cd83  1  0.16595181  0.16694145  0.65964053  1
  Cd  Cd84  1  0.16565168  0.50117873  0.99881739  1
  Cd  Cd85  1  0.17065519  0.49478014  0.32992344  1
  Cd  Cd86  1  0.16978023  0.49656189  0.66336613  1
  Cd  Cd87  1  0.16632598  0.83271527  0.00004162  1
  Cd  Cd88  1  0.16552991  0.83359227  0.33448206  1
  Cd  Cd89  1  0.15795619  0.83339293  0.66721166  1
  Cd  Cd90  1  0.50926289  0.16665595  0.00082535  1
  Cd  Cd91  1  0.49619527  0.17200339  0.32862778  1
  Cd  Cd92  1  0.50026263  0.16877141  0.66763617  1
  Cd  Cd93  1  0.50398211  0.49536452  0.00396868  1
  Cd  Cd94  1  0.50123194  0.49850343  0.33221841  1
  Cd  Cd95  1  0.50490295  0.50480496  0.67122905  1
  Cd  Cd96  1  0.50538840  0.82890306  0.99566283  1
  Cd  Cd97  1  0.49708466  0.83636815  0.32802694  1
  Cd  Cd98  1  0.50082673  0.83426224  0.66750487  1
  Cd  Cd99  1  0.82826126  0.16311375  0.00353895  1
  Cd  Cd100  1  0.82932715  0.17165305  0.32857492  1
  Cd  Cd101  1  0.83337728  0.16688428  0.66784070  1
  Cd  Cd102  1  0.83799872  0.49911343  0.99970888  1
  Cd  Cd103  1  0.82887321  0.49647427  0.33664443  1
  Cd  Cd104  1  0.83380140  0.49384731  0.66772199  1
  Cd  Cd105  1  0.83566801  0.83624327  0.99547910  1
  Cd  Cd106  1  0.82953583  0.82897053  0.33658811  1
  Cd  Cd107  1  0.83712717  0.82858706  0.66367985  1
  Se  Se108  1  0.07977671  0.75115173  0.74876307  1
  Se  Se109  1  0.42063208  0.41559726  0.08448374  1
  Se  Se110  1  0.74789810  0.08369888  0.08263954  1
  Se  Se111  1  0.75020515  0.41481611  0.41604983  1
  Se  Se112  1  0.75036255  0.41865721  0.75188589  1
  Se  Se113  1  0.75181913  0.74924456  0.41818008  1
  Se  Se114  1  0.08431257  0.25124724  0.58288248  1
  Se  Se115  1  0.08332262  0.91531071  0.58418388  1
  Se  Se116  1  0.41742297  0.25290592  0.24771474  1
  Se  Se117  1  0.41729968  0.91729959  0.24974474  1
  Se  Se118  1  0.74785389  0.24960425  0.24819360  1
  Se  Se119  1  0.75005272  0.91658672  0.91981993  1
  Se  Se120  1  0.24696768  0.08366087  0.58321001  1
  Se  Se121  1  0.25269453  0.41541834  0.24901426  1
  Se  Se122  1  0.24833978  0.41555270  0.58354702  1
  Se  Se123  1  0.58623581  0.08351020  0.91928448  1
  Se  Se124  1  0.58367964  0.41847552  0.91798896  1
  Se  Se125  1  0.58588715  0.74840845  0.91653959  1
  Se  Se126  1  0.91571441  0.41600189  0.58391638  1
  Se  Se127  1  0.91421597  0.41794536  0.91643895  1
  Se  Se128  1  0.91804231  0.75034468  0.58393719  1
  Se  Se129  1  0.91577453  0.75096287  0.91770177  1
  Se  Se130  1  0.58450907  0.25035316  0.08322233  1
  Se  Se131  1  0.58298022  0.58231285  0.08025000  1
  Se  Se132  1  0.58516657  0.58129800  0.75339219  1
  Se  Se133  1  0.91575747  0.58291692  0.08018440  1
  Se  Se134  1  0.91280943  0.91655667  0.08070693  1
  Te  Te135  1  0.08204763  0.08235683  0.08270453  1
  Te  Te136  1  0.08378776  0.08311094  0.42030603  1
  Te  Te137  1  0.08350215  0.08382069  0.74677542  1
  Te  Te138  1  0.08105130  0.41741554  0.08327745  1
  Te  Te139  1  0.08402631  0.41664524  0.41957058  1
  Te  Te140  1  0.08139355  0.41594887  0.74727445  1
  Te  Te141  1  0.07960969  0.74991019  0.08254905  1
  Te  Te142  1  0.08142473  0.75106213  0.41917680  1
  Te  Te143  1  0.41956757  0.08517328  0.08422478  1
  Te  Te144  1  0.41641976  0.08433902  0.41480769  1
  Te  Te145  1  0.41698902  0.08327823  0.75027241  1
  Te  Te146  1  0.41476313  0.41553758  0.41585205  1
  Te  Te147  1  0.41862150  0.41772926  0.74983052  1
  Te  Te148  1  0.41964726  0.75003135  0.08339628  1
  Te  Te149  1  0.41707881  0.75066217  0.41552922  1
  Te  Te150  1  0.42001552  0.74807877  0.75177830  1
  Te  Te151  1  0.75050543  0.08522379  0.41538099  1
  Te  Te152  1  0.74972177  0.08209605  0.75256108  1
  Te  Te153  1  0.74838788  0.41673074  0.08232577  1
  Te  Te154  1  0.75130597  0.74907283  0.07896312  1
  Te  Te155  1  0.75006725  0.74993468  0.75193171  1
  Te  Te156  1  0.08436134  0.25076466  0.25007505  1
  Te  Te157  1  0.08124056  0.25079005  0.91690892  1
  Te  Te158  1  0.08331912  0.58134600  0.24946540  1
  Te  Te159  1  0.08155272  0.58333859  0.58473959  1
  Te  Te160  1  0.07940102  0.58493237  0.91618962  1
  Te  Te161  1  0.08152693  0.91701095  0.24879576  1
  Te  Te162  1  0.08054605  0.91450041  0.91625739  1
  Te  Te163  1  0.41430826  0.24964916  0.58282432  1
  Te  Te164  1  0.42073383  0.25060827  0.91964768  1
  Te  Te165  1  0.41684045  0.58072106  0.24733759  1
  Te  Te166  1  0.41631069  0.58106222  0.58393199  1
  Te  Te167  1  0.42217168  0.58248351  0.91815745  1
  Te  Te168  1  0.41598162  0.91818802  0.58386235  1
  Te  Te169  1  0.41933197  0.91669182  0.91704768  1
  Te  Te170  1  0.75169479  0.25320206  0.58337764  1
  Te  Te171  1  0.74796569  0.25172695  0.91784822  1
  Te  Te172  1  0.74984961  0.58322436  0.24908143  1
  Te  Te173  1  0.75162430  0.58238760  0.58374815  1
  Te  Te174  1  0.74888976  0.58171034  0.91698486  1
  Te  Te175  1  0.75172285  0.91710384  0.24861459  1
  Te  Te176  1  0.75104461  0.91434682  0.58204813  1
  Te  Te177  1  0.25266147  0.08411344  0.25005794  1
  Te  Te178  1  0.25011765  0.08420872  0.91693599  1
  Te  Te179  1  0.25097359  0.41618636  0.91759094  1
  Te  Te180  1  0.25107293  0.75127708  0.24991149  1
  Te  Te181  1  0.24699762  0.75059362  0.58479815  1
  Te  Te182  1  0.24859001  0.74862345  0.91502370  1
  Te  Te183  1  0.58304771  0.08626860  0.24673256  1
  Te  Te184  1  0.58374699  0.08390231  0.58412741  1
  Te  Te185  1  0.58381910  0.41399547  0.24689135  1
  Te  Te186  1  0.58574295  0.41811113  0.58465266  1
  Te  Te187  1  0.58390538  0.74916273  0.24923077  1
  Te  Te188  1  0.58537409  0.74844433  0.58430347  1
  Te  Te189  1  0.91391926  0.08322654  0.24790516  1
  Te  Te190  1  0.91920261  0.08357102  0.58415034  1
  Te  Te191  1  0.91380274  0.08139030  0.91761679  1
  Te  Te192  1  0.91461902  0.41752382  0.24965826  1
  Te  Te193  1  0.91514902  0.74922273  0.24834423  1
  Te  Te194  1  0.25218186  0.25270488  0.08497613  1
  Te  Te195  1  0.25072545  0.25149539  0.41773851  1
  Te  Te196  1  0.24945977  0.25022176  0.74654351  1
  Te  Te197  1  0.25141048  0.58093492  0.08439810  1
  Te  Te198  1  0.25020099  0.58059181  0.41647126  1
  Te  Te199  1  0.24842670  0.58345264  0.74991515  1
  Te  Te200  1  0.25183577  0.91579819  0.08441349  1
  Te  Te201  1  0.24937206  0.91846765  0.41767040  1
  Te  Te202  1  0.24760629  0.91625325  0.74768718  1
  Te  Te203  1  0.58454635  0.25193540  0.41353914  1
  Te  Te204  1  0.58481391  0.25189488  0.75261253  1
  Te  Te205  1  0.58633834  0.58286862  0.41608066  1
  Te  Te206  1  0.58538752  0.91793552  0.08052644  1
  Te  Te207  1  0.58359860  0.91519006  0.41478481  1
  Te  Te208  1  0.58508152  0.91634772  0.75473144  1
  Te  Te209  1  0.91361392  0.25079412  0.08302617  1
  Te  Te210  1  0.91490590  0.25195698  0.41732271  1
  Te  Te211  1  0.91585517  0.25426243  0.74983731  1
  Te  Te212  1  0.91387222  0.58327688  0.41891516  1
  Te  Te213  1  0.91596013  0.58346666  0.75034308  1
  Te  Te214  1  0.91694442  0.91398790  0.41853682  1
  Te  Te215  1  0.91765878  0.91337826  0.75055531  1
  Cu  Cu216  1  0.49993334  0.49993683  0.49976015  1
  Cu  Cu217  1  0.63318177  0.29996372  0.56648735  1
