# generated using pymatgen
data_Cd107(Te3Se)27
_symmetry_space_group_name_H-M   'P 1'
_cell_length_a   19.56885388
_cell_length_b   19.56453553
_cell_length_c   19.56721656
_cell_angle_alpha   90.00225732
_cell_angle_beta   89.99767949
_cell_angle_gamma   90.00013634
_symmetry_Int_Tables_number   1
_chemical_formula_structural   Cd107(Te3Se)27
_chemical_formula_sum   'Cd107 Te81 Se27'
_cell_volume   7491.41719102
_cell_formula_units_Z   1
loop_
 _symmetry_equiv_pos_site_id
 _symmetry_equiv_pos_as_xyz
  1  'x, y, z'
loop_
 _atom_site_type_symbol
 _atom_site_label
 _atom_site_symmetry_multiplicity
 _atom_site_fract_x
 _atom_site_fract_y
 _atom_site_fract_z
 _atom_site_occupancy
  Cd  Cd0  1  0.99518822  0.99535840  0.00308700  1
  Cd  Cd1  1  0.99837739  0.00036341  0.33456984  1
  Cd  Cd2  1  0.00310048  0.99475173  0.66402207  1
  Cd  Cd3  1  0.99425673  0.33751402  0.99634124  1
  Cd  Cd4  1  0.99996388  0.33428166  0.33375855  1
  Cd  Cd5  1  0.99973729  0.33313319  0.65884958  1
  Cd  Cd6  1  0.99147808  0.66683843  0.99932909  1
  Cd  Cd7  1  0.99930320  0.66598292  0.33381950  1
  Cd  Cd8  1  0.99892076  0.67195084  0.66729671  1
  Cd  Cd9  1  0.33481990  0.00075419  0.00084605  1
  Cd  Cd10  1  0.33719653  0.99632320  0.33012920  1
  Cd  Cd11  1  0.32820098  0.00457190  0.66381792  1
  Cd  Cd12  1  0.33901996  0.33735002  0.00446742  1
  Cd  Cd13  1  0.33350270  0.33249524  0.32674159  1
  Cd  Cd14  1  0.33046687  0.33821146  0.66330013  1
  Cd  Cd15  1  0.33464437  0.66621387  0.99967362  1
  Cd  Cd16  1  0.33405193  0.66538021  0.33320059  1
  Cd  Cd17  1  0.33347980  0.66708151  0.66677482  1
  Cd  Cd18  1  0.67070657  0.00360866  0.99747595  1
  Cd  Cd19  1  0.66625434  0.00123233  0.33134682  1
  Cd  Cd20  1  0.66729818  0.99814721  0.66693681  1
  Cd  Cd21  1  0.65912281  0.33430295  0.99955908  1
  Cd  Cd22  1  0.67363539  0.33412358  0.33140368  1
  Cd  Cd23  1  0.67169504  0.33695325  0.67219981  1
  Cd  Cd24  1  0.66045834  0.66559599  0.99908402  1
  Cd  Cd25  1  0.67119363  0.67090481  0.33608748  1
  Cd  Cd26  1  0.66460896  0.66138337  0.67225116  1
  Cd  Cd27  1  0.99941384  0.16809415  0.16592460  1
  Cd  Cd28  1  0.00334098  0.17206502  0.50348771  1
  Cd  Cd29  1  0.99865558  0.16593137  0.83225225  1
  Cd  Cd30  1  0.99452488  0.50427724  0.16181365  1
  Cd  Cd31  1  0.99517997  0.49727164  0.50457030  1
  Cd  Cd32  1  0.99577409  0.49672291  0.83564661  1
  Cd  Cd33  1  0.99416118  0.83770747  0.16246871  1
  Cd  Cd34  1  0.99978607  0.83375440  0.50844015  1
  Cd  Cd35  1  0.99885886  0.82497140  0.83403244  1
  Cd  Cd36  1  0.33827125  0.17085723  0.17021058  1
  Cd  Cd37  1  0.32877567  0.16227449  0.50229297  1
  Cd  Cd38  1  0.33459238  0.16876265  0.83321140  1
  Cd  Cd39  1  0.33475757  0.49122997  0.16648238  1
  Cd  Cd40  1  0.32999602  0.49480699  0.50381209  1
  Cd  Cd41  1  0.33461478  0.50134622  0.83405632  1
  Cd  Cd42  1  0.33834592  0.83635427  0.17001381  1
  Cd  Cd43  1  0.33229491  0.83264721  0.50019307  1
  Cd  Cd44  1  0.33399907  0.83417245  0.83258735  1
  Cd  Cd45  1  0.66928192  0.17093379  0.16176581  1
  Cd  Cd46  1  0.66707826  0.16818091  0.49990494  1
  Cd  Cd47  1  0.66329474  0.16360794  0.83794707  1
  Cd  Cd48  1  0.66266250  0.50398911  0.16230144  1
  Cd  Cd49  1  0.67160436  0.49605160  0.49590461  1
  Cd  Cd50  1  0.66485233  0.49634642  0.83171243  1
  Cd  Cd51  1  0.66776142  0.83262259  0.16493876  1
  Cd  Cd52  1  0.67033230  0.82841283  0.49601204  1
  Cd  Cd53  1  0.66855129  0.83317790  0.84189253  1
  Cd  Cd54  1  0.16780133  0.00093609  0.16683658  1
  Cd  Cd55  1  0.16623057  0.99923073  0.50761266  1
  Cd  Cd56  1  0.16586421  0.00000249  0.83318861  1
  Cd  Cd57  1  0.16994262  0.33793419  0.16997570  1
  Cd  Cd58  1  0.16647897  0.33276876  0.50660475  1
  Cd  Cd59  1  0.16621415  0.33332214  0.83215010  1
  Cd  Cd60  1  0.16627481  0.66672763  0.16620481  1
  Cd  Cd61  1  0.16577306  0.66520221  0.49988906  1
  Cd  Cd62  1  0.16026296  0.66998257  0.82820458  1
  Cd  Cd63  1  0.49787446  0.99651726  0.16878651  1
  Cd  Cd64  1  0.50052773  0.00033936  0.49898815  1
  Cd  Cd65  1  0.50458705  0.00466082  0.83821543  1
  Cd  Cd66  1  0.49796733  0.32901116  0.16254835  1
  Cd  Cd67  1  0.50040848  0.33349933  0.50049202  1
  Cd  Cd68  1  0.50388878  0.33819745  0.83877788  1
  Cd  Cd69  1  0.50433763  0.66128901  0.16242563  1
  Cd  Cd70  1  0.50934845  0.66590558  0.83470973  1
  Cd  Cd71  1  0.83234803  0.00025925  0.15810628  1
  Cd  Cd72  1  0.83421819  0.00099538  0.49955332  1
  Cd  Cd73  1  0.82948458  0.99385679  0.83667392  1
  Cd  Cd74  1  0.82786519  0.33018422  0.17017208  1
  Cd  Cd75  1  0.83392275  0.34078923  0.49999521  1
  Cd  Cd76  1  0.83161923  0.34064762  0.83423639  1
  Cd  Cd77  1  0.83564997  0.66212232  0.16191339  1
  Cd  Cd78  1  0.83437958  0.67353257  0.50190979  1
  Cd  Cd79  1  0.83562332  0.66990024  0.83819370  1
  Cd  Cd80  1  0.16686027  0.16803078  0.00104548  1
  Cd  Cd81  1  0.16730169  0.16613008  0.33488999  1
  Cd  Cd82  1  0.16633999  0.16742907  0.65971079  1
  Cd  Cd83  1  0.16541553  0.50098830  0.99916751  1
  Cd  Cd84  1  0.17052604  0.49469348  0.32966358  1
  Cd  Cd85  1  0.16945609  0.49655623  0.66330386  1
  Cd  Cd86  1  0.16632692  0.83283328  0.00014504  1
  Cd  Cd87  1  0.16562528  0.83363734  0.33427883  1
  Cd  Cd88  1  0.15795405  0.83327091  0.66714959  1
  Cd  Cd89  1  0.50954428  0.16653557  0.00116604  1
  Cd  Cd90  1  0.49649816  0.17209876  0.32788711  1
  Cd  Cd91  1  0.49985328  0.16910317  0.66784853  1
  Cd  Cd92  1  0.50403489  0.49552119  0.00370342  1
  Cd  Cd93  1  0.50132133  0.49908062  0.33274796  1
  Cd  Cd94  1  0.50480285  0.50465343  0.67087465  1
  Cd  Cd95  1  0.50517000  0.82867808  0.99545850  1
  Cd  Cd96  1  0.49677198  0.83640091  0.32839531  1
  Cd  Cd97  1  0.50103397  0.83418011  0.66742875  1
  Cd  Cd98  1  0.82821302  0.16332808  0.00337370  1
  Cd  Cd99  1  0.82929039  0.17166906  0.32867740  1
  Cd  Cd100  1  0.83316002  0.16701560  0.66807521  1
  Cd  Cd101  1  0.83836961  0.49931740  0.99957540  1
  Cd  Cd102  1  0.82838822  0.49639686  0.33689551  1
  Cd  Cd103  1  0.83373648  0.49408903  0.66727866  1
  Cd  Cd104  1  0.83555207  0.83638552  0.99562052  1
  Cd  Cd105  1  0.82963111  0.82942472  0.33674320  1
  Cd  Cd106  1  0.83694213  0.82852822  0.66375686  1
  Se  Se107  1  0.08001199  0.75091765  0.74858281  1
  Se  Se108  1  0.42059587  0.41537215  0.08467381  1
  Se  Se109  1  0.74814675  0.08353113  0.08285997  1
  Se  Se110  1  0.75060613  0.41492732  0.41617376  1
  Se  Se111  1  0.75039665  0.41870781  0.75192678  1
  Se  Se112  1  0.75215863  0.74919707  0.41829243  1
  Se  Se113  1  0.08463932  0.25150794  0.58341890  1
  Se  Se114  1  0.08331220  0.91558604  0.58421433  1
  Se  Se115  1  0.41707440  0.25305902  0.24775243  1
  Se  Se116  1  0.41745632  0.91733711  0.24952008  1
  Se  Se117  1  0.74775086  0.24959110  0.24813567  1
  Se  Se118  1  0.74983650  0.91646115  0.91943939  1
  Se  Se119  1  0.24727795  0.08404018  0.58332432  1
  Se  Se120  1  0.25257539  0.41545562  0.24867820  1
  Se  Se121  1  0.24820564  0.41546100  0.58349694  1
  Se  Se122  1  0.58628595  0.08340419  0.91974002  1
  Se  Se123  1  0.58413392  0.41865253  0.91778594  1
  Se  Se124  1  0.58586868  0.74822919  0.91634518  1
  Se  Se125  1  0.91578632  0.41575425  0.58399162  1
  Se  Se126  1  0.91463391  0.41776855  0.91617422  1
  Se  Se127  1  0.91806460  0.75036537  0.58391918  1
  Se  Se128  1  0.91566644  0.75077045  0.91779102  1
  Se  Se129  1  0.58435739  0.25042778  0.08274927  1
  Se  Se130  1  0.58289895  0.58183046  0.07992191  1
  Se  Se131  1  0.58554957  0.58158283  0.75385508  1
  Se  Se132  1  0.91556131  0.58307675  0.07988132  1
  Se  Se133  1  0.91281584  0.91658992  0.08047917  1
  Te  Te134  1  0.08179847  0.08219804  0.08281153  1
  Te  Te135  1  0.08348565  0.08309916  0.42025331  1
  Te  Te136  1  0.08357284  0.08380388  0.74680013  1
  Te  Te137  1  0.08140763  0.41762061  0.08340424  1
  Te  Te138  1  0.08405658  0.41675708  0.41953057  1
  Te  Te139  1  0.08156143  0.41589644  0.74756865  1
  Te  Te140  1  0.07917095  0.74976243  0.08240652  1
  Te  Te141  1  0.08143469  0.75095340  0.41930614  1
  Te  Te142  1  0.41997834  0.08501010  0.08393813  1
  Te  Te143  1  0.41612493  0.08448654  0.41462955  1
  Te  Te144  1  0.41707190  0.08300761  0.75060524  1
  Te  Te145  1  0.41472089  0.41525863  0.41545543  1
  Te  Te146  1  0.41848644  0.41778830  0.74980493  1
  Te  Te147  1  0.41981366  0.75002556  0.08329748  1
  Te  Te148  1  0.41741279  0.75075179  0.41575529  1
  Te  Te149  1  0.41983714  0.74800764  0.75166743  1
  Te  Te150  1  0.75068541  0.08519666  0.41522333  1
  Te  Te151  1  0.74939233  0.08249384  0.75243530  1
  Te  Te152  1  0.74831618  0.41718862  0.08209463  1
  Te  Te153  1  0.75126382  0.74909483  0.07897460  1
  Te  Te154  1  0.74965629  0.74996956  0.75238423  1
  Te  Te155  1  0.08446104  0.25108609  0.24991733  1
  Te  Te156  1  0.08153764  0.25100308  0.91727861  1
  Te  Te157  1  0.08305861  0.58128537  0.24981159  1
  Te  Te158  1  0.08153634  0.58310275  0.58481992  1
  Te  Te159  1  0.07958093  0.58475038  0.91558531  1
  Te  Te160  1  0.08143744  0.91718340  0.24863546  1
  Te  Te161  1  0.08090327  0.91439329  0.91630563  1
  Te  Te162  1  0.41402775  0.24986613  0.58272169  1
  Te  Te163  1  0.42074229  0.25061228  0.91946238  1
  Te  Te164  1  0.41712279  0.58066658  0.24684327  1
  Te  Te165  1  0.41651093  0.58165272  0.58371197  1
  Te  Te166  1  0.42228544  0.58216691  0.91842657  1
  Te  Te167  1  0.41559169  0.91832953  0.58385672  1
  Te  Te168  1  0.41929766  0.91696075  0.91660556  1
  Te  Te169  1  0.75129576  0.25344909  0.58342585  1
  Te  Te170  1  0.74768432  0.25177748  0.91778491  1
  Te  Te171  1  0.74932269  0.58348220  0.24930248  1
  Te  Te172  1  0.75185370  0.58242570  0.58377001  1
  Te  Te173  1  0.74885551  0.58129360  0.91718990  1
  Te  Te174  1  0.75185455  0.91720427  0.24857806  1
  Te  Te175  1  0.75114084  0.91475433  0.58225032  1
  Te  Te176  1  0.25267893  0.08391918  0.25003493  1
  Te  Te177  1  0.24999056  0.08394114  0.91640902  1
  Te  Te178  1  0.25111798  0.41638564  0.91788887  1
  Te  Te179  1  0.25085342  0.75110226  0.24988124  1
  Te  Te180  1  0.24695180  0.75083783  0.58484782  1
  Te  Te181  1  0.24896401  0.74874669  0.91468266  1
  Te  Te182  1  0.58305906  0.08640731  0.24700665  1
  Te  Te183  1  0.58373564  0.08382912  0.58406397  1
  Te  Te184  1  0.58418240  0.41404511  0.24683109  1
  Te  Te185  1  0.58592672  0.41779832  0.58486368  1
  Te  Te186  1  0.58388100  0.74906909  0.24883640  1
  Te  Te187  1  0.58525716  0.74844181  0.58439766  1
  Te  Te188  1  0.91403166  0.08342646  0.24774257  1
  Te  Te189  1  0.91934788  0.08352524  0.58411766  1
  Te  Te190  1  0.91370931  0.08127729  0.91799649  1
  Te  Te191  1  0.91430858  0.41737008  0.24965329  1
  Te  Te192  1  0.91493159  0.74919880  0.24822961  1
  Te  Te193  1  0.25216069  0.25251317  0.08534223  1
  Te  Te194  1  0.25042952  0.25175168  0.41759678  1
  Te  Te195  1  0.24958010  0.25040644  0.74680406  1
  Te  Te196  1  0.25182152  0.58089784  0.08449858  1
  Te  Te197  1  0.25007369  0.58066028  0.41651891  1
  Te  Te198  1  0.24839237  0.58313416  0.74981110  1
  Te  Te199  1  0.25185133  0.91620241  0.08436175  1
  Te  Te200  1  0.24907893  0.91874380  0.41795006  1
  Te  Te201  1  0.24761850  0.91642689  0.74763036  1
  Te  Te202  1  0.58457808  0.25184109  0.41414343  1
  Te  Te203  1  0.58455994  0.25190010  0.75268103  1
  Te  Te204  1  0.58621543  0.58295520  0.41608890  1
  Te  Te205  1  0.58508533  0.91766475  0.08012706  1
  Te  Te206  1  0.58378765  0.91525089  0.41500650  1
  Te  Te207  1  0.58517332  0.91625947  0.75477292  1
  Te  Te208  1  0.91342606  0.25052855  0.08285514  1
  Te  Te209  1  0.91519107  0.25189480  0.41704836  1
  Te  Te210  1  0.91603360  0.25456214  0.75025867  1
  Te  Te211  1  0.91380698  0.58334447  0.41882588  1
  Te  Te212  1  0.91615485  0.58366193  0.75028757  1
  Te  Te213  1  0.91684194  0.91380309  0.41854735  1
  Te  Te214  1  0.91743542  0.91295247  0.75062372  1
