# generated using pymatgen
data_Cd108Te81AsSe27O2
_symmetry_space_group_name_H-M   'P 1'
_cell_length_a   19.56885388
_cell_length_b   19.56453553
_cell_length_c   19.56721656
_cell_angle_alpha   90.00225732
_cell_angle_beta   89.99767949
_cell_angle_gamma   90.00013634
_symmetry_Int_Tables_number   1
_chemical_formula_structural   Cd108Te81AsSe27O2
_chemical_formula_sum   'Cd108 Te81 As1 Se27 O2'
_cell_volume   7491.41719102
_cell_formula_units_Z   1
loop_
 _symmetry_equiv_pos_site_id
 _symmetry_equiv_pos_as_xyz
  1  'x, y, z'
loop_
 _atom_site_type_symbol
 _atom_site_label
 _atom_site_symmetry_multiplicity
 _atom_site_fract_x
 _atom_site_fract_y
 _atom_site_fract_z
 _atom_site_occupancy
  Cd  Cd0  1  0.99490477  0.99513065  0.00289619  1
  Cd  Cd1  1  0.99855799  0.00044185  0.33427677  1
  Cd  Cd2  1  0.00306617  0.99475007  0.66386110  1
  Cd  Cd3  1  0.99427222  0.33736473  0.99617729  1
  Cd  Cd4  1  0.99998682  0.33427575  0.33374564  1
  Cd  Cd5  1  0.99964929  0.33283187  0.65897704  1
  Cd  Cd6  1  0.99142839  0.66708586  0.99916854  1
  Cd  Cd7  1  0.99954755  0.66601778  0.33325967  1
  Cd  Cd8  1  0.99878820  0.67196040  0.66707320  1
  Cd  Cd9  1  0.33500936  0.00074246  0.00097906  1
  Cd  Cd10  1  0.33696363  0.99633082  0.33010391  1
  Cd  Cd11  1  0.32822877  0.00458609  0.66383977  1
  Cd  Cd12  1  0.33916750  0.33753814  0.00438792  1
  Cd  Cd13  1  0.33386508  0.33246995  0.32666987  1
  Cd  Cd14  1  0.33068656  0.33828615  0.66386764  1
  Cd  Cd15  1  0.33464120  0.66594817  0.99928394  1
  Cd  Cd16  1  0.33399280  0.66502221  0.33275293  1
  Cd  Cd17  1  0.33334476  0.66689626  0.66691987  1
  Cd  Cd18  1  0.67114637  0.00326938  0.99742226  1
  Cd  Cd19  1  0.66638995  0.00129840  0.33191075  1
  Cd  Cd20  1  0.66721401  0.99836806  0.66761284  1
  Cd  Cd21  1  0.65927187  0.33407582  0.99990987  1
  Cd  Cd22  1  0.67368178  0.33352958  0.33148533  1
  Cd  Cd23  1  0.67223755  0.33699834  0.67314169  1
  Cd  Cd24  1  0.66060748  0.66580630  0.99913185  1
  Cd  Cd25  1  0.67095529  0.67108408  0.33671341  1
  Cd  Cd26  1  0.66463764  0.66105356  0.67177621  1
  Cd  Cd27  1  0.00005076  0.16799081  0.16584546  1
  Cd  Cd28  1  0.00343452  0.17199966  0.50348825  1
  Cd  Cd29  1  0.99857266  0.16611466  0.83281596  1
  Cd  Cd30  1  0.99471806  0.50430761  0.16239908  1
  Cd  Cd31  1  0.99527730  0.49729320  0.50451231  1
  Cd  Cd32  1  0.99620723  0.49627794  0.83528399  1
  Cd  Cd33  1  0.99405285  0.83756847  0.16243401  1
  Cd  Cd34  1  0.00002168  0.83393893  0.50821794  1
  Cd  Cd35  1  0.99906678  0.82477680  0.83376983  1
  Cd  Cd36  1  0.33823381  0.17102765  0.17009329  1
  Cd  Cd37  1  0.32863218  0.16227892  0.50236575  1
  Cd  Cd38  1  0.33481032  0.16871456  0.83345189  1
  Cd  Cd39  1  0.33496695  0.49125712  0.16603307  1
  Cd  Cd40  1  0.32944840  0.49460764  0.50394876  1
  Cd  Cd41  1  0.33473901  0.50127093  0.83382377  1
  Cd  Cd42  1  0.33886962  0.83642908  0.16999307  1
  Cd  Cd43  1  0.33261798  0.83274412  0.50024675  1
  Cd  Cd44  1  0.33399873  0.83403237  0.83249792  1
  Cd  Cd45  1  0.66913969  0.17077129  0.16139397  1
  Cd  Cd46  1  0.66676295  0.16807146  0.49979921  1
  Cd  Cd47  1  0.66307374  0.16342422  0.83797825  1
  Cd  Cd48  1  0.66277031  0.50405236  0.16230635  1
  Cd  Cd49  1  0.67163366  0.49619559  0.49636972  1
  Cd  Cd50  1  0.66491322  0.49654662  0.83159794  1
  Cd  Cd51  1  0.66779105  0.83291746  0.16530757  1
  Cd  Cd52  1  0.67062959  0.82881315  0.49591639  1
  Cd  Cd53  1  0.66823912  0.83280591  0.84209424  1
  Cd  Cd54  1  0.16727736  0.00093545  0.16688267  1
  Cd  Cd55  1  0.16619954  0.99923402  0.50754361  1
  Cd  Cd56  1  0.16542243  0.99990252  0.83330825  1
  Cd  Cd57  1  0.16965577  0.33778957  0.17022794  1
  Cd  Cd58  1  0.16664826  0.33257904  0.50653774  1
  Cd  Cd59  1  0.16595145  0.33299659  0.83205474  1
  Cd  Cd60  1  0.16605085  0.66707822  0.16566493  1
  Cd  Cd61  1  0.16612670  0.66525621  0.49993456  1
  Cd  Cd62  1  0.16057883  0.66998952  0.82808006  1
  Cd  Cd63  1  0.49823440  0.99632751  0.16883756  1
  Cd  Cd64  1  0.50054337  0.00036192  0.49875192  1
  Cd  Cd65  1  0.50477979  0.00499518  0.83805136  1
  Cd  Cd66  1  0.49810869  0.32885325  0.16265308  1
  Cd  Cd67  1  0.50032551  0.33367795  0.49990780  1
  Cd  Cd68  1  0.50390307  0.33790998  0.83878404  1
  Cd  Cd69  1  0.50458083  0.66140448  0.16219781  1
  Cd  Cd70  1  0.50036775  0.66580058  0.49983471  1
  Cd  Cd71  1  0.50890773  0.66584859  0.83436424  1
  Cd  Cd72  1  0.83232915  0.00032353  0.15805908  1
  Cd  Cd73  1  0.83439782  0.00067976  0.49997385  1
  Cd  Cd74  1  0.82940796  0.99394471  0.83678211  1
  Cd  Cd75  1  0.82766444  0.33039817  0.17025894  1
  Cd  Cd76  1  0.83385668  0.34093823  0.49957546  1
  Cd  Cd77  1  0.83160081  0.34074197  0.83434769  1
  Cd  Cd78  1  0.83627059  0.66221749  0.16157464  1
  Cd  Cd79  1  0.83413541  0.67344110  0.50201140  1
  Cd  Cd80  1  0.83585396  0.66923216  0.83827722  1
  Cd  Cd81  1  0.16726636  0.16814806  0.00133531  1
  Cd  Cd82  1  0.16738550  0.16617801  0.33504191  1
  Cd  Cd83  1  0.16610190  0.16724521  0.65978201  1
  Cd  Cd84  1  0.16572701  0.50117199  0.99893158  1
  Cd  Cd85  1  0.17081756  0.49450823  0.32963285  1
  Cd  Cd86  1  0.16965504  0.49658116  0.66327880  1
  Cd  Cd87  1  0.16628632  0.83282169  0.00011780  1
  Cd  Cd88  1  0.16544543  0.83350072  0.33386920  1
  Cd  Cd89  1  0.15758856  0.83319724  0.66717891  1
  Cd  Cd90  1  0.50926698  0.16627264  0.00121258  1
  Cd  Cd91  1  0.49639010  0.17199745  0.32833536  1
  Cd  Cd92  1  0.49981254  0.16883664  0.66768309  1
  Cd  Cd93  1  0.50388164  0.49530391  0.00386180  1
  Cd  Cd94  1  0.50087973  0.49888432  0.33247293  1
  Cd  Cd95  1  0.50433247  0.50492497  0.67132514  1
  Cd  Cd96  1  0.50531861  0.82922555  0.99537197  1
  Cd  Cd97  1  0.49680873  0.83638081  0.32855842  1
  Cd  Cd98  1  0.50083302  0.83423113  0.66736799  1
  Cd  Cd99  1  0.82820254  0.16384515  0.00372541  1
  Cd  Cd100  1  0.82963880  0.17112461  0.32839176  1
  Cd  Cd101  1  0.83342403  0.16680069  0.66780423  1
  Cd  Cd102  1  0.83805008  0.49951708  0.99983948  1
  Cd  Cd103  1  0.82859530  0.49700603  0.33667201  1
  Cd  Cd104  1  0.83362961  0.49397803  0.66713479  1
  Cd  Cd105  1  0.83620204  0.83623901  0.99543919  1
  Cd  Cd106  1  0.82960879  0.82937137  0.33646210  1
  Cd  Cd107  1  0.83694715  0.82861669  0.66395061  1
  Se  Se108  1  0.08008356  0.75079005  0.74877870  1
  Se  Se109  1  0.42057679  0.41539714  0.08469230  1
  Se  Se110  1  0.74791472  0.08335229  0.08255795  1
  Se  Se111  1  0.75089094  0.41479119  0.41595510  1
  Se  Se112  1  0.75047483  0.41869202  0.75192142  1
  Se  Se113  1  0.75224835  0.74923576  0.41847461  1
  Se  Se114  1  0.08434611  0.25150180  0.58311617  1
  Se  Se115  1  0.08339457  0.91547801  0.58435004  1
  Se  Se116  1  0.41671601  0.25296065  0.24783829  1
  Se  Se117  1  0.41745943  0.91760528  0.24966394  1
  Se  Se118  1  0.74771480  0.24995384  0.24808722  1
  Se  Se119  1  0.74972701  0.91648074  0.91956168  1
  Se  Se120  1  0.24720863  0.08346551  0.58352454  1
  Se  Se121  1  0.25281584  0.41525767  0.24880608  1
  Se  Se122  1  0.24838277  0.41554123  0.58355275  1
  Se  Se123  1  0.58612624  0.08331775  0.91983437  1
  Se  Se124  1  0.58400414  0.41857058  0.91809207  1
  Se  Se125  1  0.58575714  0.74836760  0.91656592  1
  Se  Se126  1  0.91539639  0.41577233  0.58413302  1
  Se  Se127  1  0.91457510  0.41813370  0.91629783  1
  Se  Se128  1  0.91792710  0.75051281  0.58380355  1
  Se  Se129  1  0.91584322  0.75100333  0.91772492  1
  Se  Se130  1  0.58422881  0.25049778  0.08317413  1
  Se  Se131  1  0.58279750  0.58195071  0.08029411  1
  Se  Se132  1  0.58576624  0.58172300  0.75380590  1
  Se  Se133  1  0.91534499  0.58287639  0.08015067  1
  Se  Se134  1  0.91261724  0.91657445  0.08114097  1
  Te  Te135  1  0.08208466  0.08254639  0.08268445  1
  Te  Te136  1  0.08340040  0.08292881  0.42019068  1
  Te  Te137  1  0.08325509  0.08396886  0.74683656  1
  Te  Te138  1  0.08113099  0.41733274  0.08322807  1
  Te  Te139  1  0.08429813  0.41688321  0.41958007  1
  Te  Te140  1  0.08165751  0.41585314  0.74757787  1
  Te  Te141  1  0.07932888  0.74958668  0.08250341  1
  Te  Te142  1  0.08157288  0.75068421  0.41917340  1
  Te  Te143  1  0.41962750  0.08475467  0.08434053  1
  Te  Te144  1  0.41643104  0.08427806  0.41466076  1
  Te  Te145  1  0.41681795  0.08297902  0.75036282  1
  Te  Te146  1  0.41454481  0.41529480  0.41522741  1
  Te  Te147  1  0.41838514  0.41768342  0.75017692  1
  Te  Te148  1  0.41934770  0.75013888  0.08315891  1
  Te  Te149  1  0.41702180  0.75082172  0.41553591  1
  Te  Te150  1  0.41999808  0.74836568  0.75184630  1
  Te  Te151  1  0.75060674  0.08504022  0.41546306  1
  Te  Te152  1  0.74950964  0.08245032  0.75226726  1
  Te  Te153  1  0.74838848  0.41716430  0.08203948  1
  Te  Te154  1  0.75149306  0.74915184  0.07912196  1
  Te  Te155  1  0.74993239  0.74976850  0.75244989  1
  Te  Te156  1  0.08463679  0.25111300  0.24992148  1
  Te  Te157  1  0.08126563  0.25076848  0.91712506  1
  Te  Te158  1  0.08334900  0.58126242  0.24980039  1
  Te  Te159  1  0.08121364  0.58310692  0.58498050  1
  Te  Te160  1  0.07940618  0.58493622  0.91592172  1
  Te  Te161  1  0.08144809  0.91699706  0.24868426  1
  Te  Te162  1  0.08051364  0.91450379  0.91592142  1
  Te  Te163  1  0.41405124  0.24982992  0.58267977  1
  Te  Te164  1  0.42074713  0.25060179  0.91968946  1
  Te  Te165  1  0.41711754  0.58061681  0.24713847  1
  Te  Te166  1  0.41617889  0.58159394  0.58341499  1
  Te  Te167  1  0.42200608  0.58194010  0.91867974  1
  Te  Te168  1  0.41584109  0.91858754  0.58381306  1
  Te  Te169  1  0.41934413  0.91708202  0.91687702  1
  Te  Te170  1  0.75252762  0.25319477  0.58309295  1
  Te  Te171  1  0.74791436  0.25182885  0.91777090  1
  Te  Te172  1  0.74952276  0.58344690  0.24928791  1
  Te  Te173  1  0.75176334  0.58227747  0.58376824  1
  Te  Te174  1  0.74887760  0.58181859  0.91707229  1
  Te  Te175  1  0.75167884  0.91702386  0.24862030  1
  Te  Te176  1  0.75108281  0.91427572  0.58255014  1
  Te  Te177  1  0.25263144  0.08414836  0.25014283  1
  Te  Te178  1  0.25001969  0.08381342  0.91670635  1
  Te  Te179  1  0.25147321  0.41611093  0.91760846  1
  Te  Te180  1  0.25099173  0.75095262  0.24940784  1
  Te  Te181  1  0.24687204  0.75086637  0.58531944  1
  Te  Te182  1  0.24874202  0.74855823  0.91450223  1
  Te  Te183  1  0.58287361  0.08631534  0.24675452  1
  Te  Te184  1  0.58370045  0.08374685  0.58432997  1
  Te  Te185  1  0.58372350  0.41413571  0.24677091  1
  Te  Te186  1  0.58511069  0.41871089  0.58508764  1
  Te  Te187  1  0.58367331  0.74897480  0.24919689  1
  Te  Te188  1  0.58522710  0.74854624  0.58435608  1
  Te  Te189  1  0.91403285  0.08340127  0.24777259  1
  Te  Te190  1  0.91893691  0.08398325  0.58386071  1
  Te  Te191  1  0.91386557  0.08124597  0.91788852  1
  Te  Te192  1  0.91423730  0.41744063  0.24965708  1
  Te  Te193  1  0.91490950  0.74922389  0.24828588  1
  Te  Te194  1  0.25220240  0.25261376  0.08531159  1
  Te  Te195  1  0.25038229  0.25182890  0.41757118  1
  Te  Te196  1  0.24944809  0.25026685  0.74651727  1
  Te  Te197  1  0.25174114  0.58051314  0.08455707  1
  Te  Te198  1  0.25014535  0.58053909  0.41632673  1
  Te  Te199  1  0.24834131  0.58350984  0.75011033  1
  Te  Te200  1  0.25184978  0.91607376  0.08444690  1
  Te  Te201  1  0.24951397  0.91845223  0.41775962  1
  Te  Te202  1  0.24794047  0.91598618  0.74773773  1
  Te  Te203  1  0.58447732  0.25202094  0.41379310  1
  Te  Te204  1  0.58465098  0.25193869  0.75298425  1
  Te  Te205  1  0.58665619  0.58277510  0.41590825  1
  Te  Te206  1  0.58501216  0.91770339  0.08031445  1
  Te  Te207  1  0.58406528  0.91499108  0.41502080  1
  Te  Te208  1  0.58511109  0.91640148  0.75476894  1
  Te  Te209  1  0.91358802  0.25079203  0.08301779  1
  Te  Te210  1  0.91498886  0.25183743  0.41737656  1
  Te  Te211  1  0.91546325  0.25417201  0.75002816  1
  Te  Te212  1  0.91381383  0.58338167  0.41883526  1
  Te  Te213  1  0.91575112  0.58331368  0.75012787  1
  Te  Te214  1  0.91706624  0.91383227  0.41826380  1
  Te  Te215  1  0.91769093  0.91307219  0.75070291  1
  O  O216  1  0.49997573  0.50007221  0.50001149  1
  As  As217  1  0.63214332  0.29925280  0.56540211  1
  O  O218  1  0.70021018  0.69970557  0.56677284  1
