# generated using pymatgen
data_Cd107(Te3Se)27
_symmetry_space_group_name_H-M   'P 1'
_cell_length_a   19.56885388
_cell_length_b   19.56453553
_cell_length_c   19.56721656
_cell_angle_alpha   90.00225732
_cell_angle_beta   89.99767949
_cell_angle_gamma   90.00013634
_symmetry_Int_Tables_number   1
_chemical_formula_structural   Cd107(Te3Se)27
_chemical_formula_sum   'Cd107 Te81 Se27'
_cell_volume   7491.41719102
_cell_formula_units_Z   1
loop_
 _symmetry_equiv_pos_site_id
 _symmetry_equiv_pos_as_xyz
  1  'x, y, z'
loop_
 _atom_site_type_symbol
 _atom_site_label
 _atom_site_symmetry_multiplicity
 _atom_site_fract_x
 _atom_site_fract_y
 _atom_site_fract_z
 _atom_site_occupancy
  Cd  Cd0  1  0.99519651  0.99536569  0.00307902  1
  Cd  Cd1  1  0.99837913  0.00037042  0.33456555  1
  Cd  Cd2  1  0.00310254  0.99475407  0.66403100  1
  Cd  Cd3  1  0.99426089  0.33750846  0.99635068  1
  Cd  Cd4  1  0.99996506  0.33427475  0.33375557  1
  Cd  Cd5  1  0.99974173  0.33312313  0.65885189  1
  Cd  Cd6  1  0.99148307  0.66683814  0.99932917  1
  Cd  Cd7  1  0.99930178  0.66598481  0.33381404  1
  Cd  Cd8  1  0.99892610  0.67196238  0.66729964  1
  Cd  Cd9  1  0.33481973  0.00076089  0.00084807  1
  Cd  Cd10  1  0.33720120  0.99633542  0.33012992  1
  Cd  Cd11  1  0.32817613  0.00458819  0.66383921  1
  Cd  Cd12  1  0.33901499  0.33733353  0.00446830  1
  Cd  Cd13  1  0.33347419  0.33247454  0.32671552  1
  Cd  Cd14  1  0.33045965  0.33817792  0.66330128  1
  Cd  Cd15  1  0.33464335  0.66621302  0.99967466  1
  Cd  Cd16  1  0.33397898  0.66530049  0.33312773  1
  Cd  Cd17  1  0.33340137  0.66717161  0.66684042  1
  Cd  Cd18  1  0.67070653  0.00361393  0.99747271  1
  Cd  Cd19  1  0.66626770  0.00124905  0.33132805  1
  Cd  Cd20  1  0.66729845  0.99817646  0.66694062  1
  Cd  Cd21  1  0.65912639  0.33429779  0.99955775  1
  Cd  Cd22  1  0.67363875  0.33408758  0.33140450  1
  Cd  Cd23  1  0.67171762  0.33693264  0.67222161  1
  Cd  Cd24  1  0.66046468  0.66559142  0.99907568  1
  Cd  Cd25  1  0.67127427  0.67100855  0.33602692  1
  Cd  Cd26  1  0.66466897  0.66129070  0.67233066  1
  Cd  Cd27  1  0.99941414  0.16809513  0.16592060  1
  Cd  Cd28  1  0.00334311  0.17207068  0.50348558  1
  Cd  Cd29  1  0.99865940  0.16592937  0.83225982  1
  Cd  Cd30  1  0.99452733  0.50427425  0.16180610  1
  Cd  Cd31  1  0.99518185  0.49726133  0.50456964  1
  Cd  Cd32  1  0.99577773  0.49671643  0.83565536  1
  Cd  Cd33  1  0.99415870  0.83771039  0.16245590  1
  Cd  Cd34  1  0.99978732  0.83376226  0.50844338  1
  Cd  Cd35  1  0.99886216  0.82497894  0.83403890  1
  Cd  Cd36  1  0.33826154  0.17085218  0.17019479  1
  Cd  Cd37  1  0.32876247  0.16227139  0.50229528  1
  Cd  Cd38  1  0.33458844  0.16876710  0.83321645  1
  Cd  Cd39  1  0.33473570  0.49121034  0.16646745  1
  Cd  Cd40  1  0.32990968  0.49473075  0.50373147  1
  Cd  Cd41  1  0.33461984  0.50135182  0.83408838  1
  Cd  Cd42  1  0.33835675  0.83635528  0.16998901  1
  Cd  Cd43  1  0.33222679  0.83271012  0.50026102  1
  Cd  Cd44  1  0.33397101  0.83419712  0.83259730  1
  Cd  Cd45  1  0.66928128  0.17093384  0.16176809  1
  Cd  Cd46  1  0.66708923  0.16818661  0.49990427  1
  Cd  Cd47  1  0.66329915  0.16360715  0.83795138  1
  Cd  Cd48  1  0.66265756  0.50398756  0.16226495  1
  Cd  Cd49  1  0.67168291  0.49597472  0.49597166  1
  Cd  Cd50  1  0.66487486  0.49631999  0.83174025  1
  Cd  Cd51  1  0.66778108  0.83264926  0.16491852  1
  Cd  Cd52  1  0.67039817  0.82849396  0.49591592  1
  Cd  Cd53  1  0.66854912  0.83317536  0.84193366  1
  Cd  Cd54  1  0.16780014  0.00094009  0.16683335  1
  Cd  Cd55  1  0.16621469  0.99924499  0.50763811  1
  Cd  Cd56  1  0.16585391  0.00000136  0.83318935  1
  Cd  Cd57  1  0.16993326  0.33792515  0.16995755  1
  Cd  Cd58  1  0.16646400  0.33274584  0.50658591  1
  Cd  Cd59  1  0.16621253  0.33331432  0.83215081  1
  Cd  Cd60  1  0.16625491  0.66670978  0.16618318  1
  Cd  Cd61  1  0.16576427  0.66520946  0.49989174  1
  Cd  Cd62  1  0.16023941  0.67000739  0.82822073  1
  Cd  Cd63  1  0.49788964  0.99653083  0.16877374  1
  Cd  Cd64  1  0.50051850  0.00035380  0.49897921  1
  Cd  Cd65  1  0.50456926  0.00468719  0.83823137  1
  Cd  Cd66  1  0.49794874  0.32898917  0.16253472  1
  Cd  Cd67  1  0.50040758  0.33347445  0.50048990  1
  Cd  Cd68  1  0.50390694  0.33817512  0.83880039  1
  Cd  Cd69  1  0.50432974  0.66129136  0.16239976  1
  Cd  Cd70  1  0.50934359  0.66590486  0.83474643  1
  Cd  Cd71  1  0.83235899  0.00026381  0.15810088  1
  Cd  Cd72  1  0.83423614  0.00101286  0.49953896  1
  Cd  Cd73  1  0.82949304  0.99385927  0.83667814  1
  Cd  Cd74  1  0.82787443  0.33018116  0.17016226  1
  Cd  Cd75  1  0.83394080  0.34076689  0.50001176  1
  Cd  Cd76  1  0.83162535  0.34064394  0.83424564  1
  Cd  Cd77  1  0.83567883  0.66213998  0.16188044  1
  Cd  Cd78  1  0.83440974  0.67353921  0.50191067  1
  Cd  Cd79  1  0.83564484  0.66988198  0.83822408  1
  Cd  Cd80  1  0.16685886  0.16803583  0.00105224  1
  Cd  Cd81  1  0.16729663  0.16612920  0.33488545  1
  Cd  Cd82  1  0.16633586  0.16743158  0.65971415  1
  Cd  Cd83  1  0.16540349  0.50098915  0.99916845  1
  Cd  Cd84  1  0.17051671  0.49466952  0.32963906  1
  Cd  Cd85  1  0.16942614  0.49655412  0.66329803  1
  Cd  Cd86  1  0.16631855  0.83283870  0.00014875  1
  Cd  Cd87  1  0.16560526  0.83363978  0.33428560  1
  Cd  Cd88  1  0.15794386  0.83329306  0.66717205  1
  Cd  Cd89  1  0.50953877  0.16653254  0.00116348  1
  Cd  Cd90  1  0.49649742  0.17209868  0.32788171  1
  Cd  Cd91  1  0.49985076  0.16910022  0.66785881  1
  Cd  Cd92  1  0.50403492  0.49551960  0.00369825  1
  Cd  Cd93  1  0.50122372  0.49900336  0.33267021  1
  Cd  Cd94  1  0.50489145  0.50459119  0.67095895  1
  Cd  Cd95  1  0.50517152  0.82868332  0.99545329  1
  Cd  Cd96  1  0.49682681  0.83646932  0.32833217  1
  Cd  Cd97  1  0.50093871  0.83426333  0.66749515  1
  Cd  Cd98  1  0.82821966  0.16333142  0.00336753  1
  Cd  Cd99  1  0.82930222  0.17167321  0.32867427  1
  Cd  Cd100  1  0.83316265  0.16701716  0.66807330  1
  Cd  Cd101  1  0.83837663  0.49931830  0.99957200  1
  Cd  Cd102  1  0.82842033  0.49639790  0.33690403  1
  Cd  Cd103  1  0.83376010  0.49405587  0.66729875  1
  Cd  Cd104  1  0.83556152  0.83638921  0.99562326  1
  Cd  Cd105  1  0.82965253  0.82944562  0.33672774  1
  Cd  Cd106  1  0.83697748  0.82853134  0.66376044  1
  Se  Se107  1  0.08001919  0.75090849  0.74856984  1
  Se  Se108  1  0.42060449  0.41538164  0.08468533  1
  Se  Se109  1  0.74814378  0.08352772  0.08286010  1
  Se  Se110  1  0.75056418  0.41496860  0.41617300  1
  Se  Se111  1  0.75038430  0.41872453  0.75190916  1
  Se  Se112  1  0.75212319  0.74916513  0.41831596  1
  Se  Se113  1  0.08464208  0.25151000  0.58342171  1
  Se  Se114  1  0.08332227  0.91557323  0.58420304  1
  Se  Se115  1  0.41708856  0.25307669  0.24775904  1
  Se  Se116  1  0.41744867  0.91730522  0.24955316  1
  Se  Se117  1  0.74773385  0.24959674  0.24813931  1
  Se  Se118  1  0.74982561  0.91645426  0.91943059  1
  Se  Se119  1  0.24728590  0.08402589  0.58331519  1
  Se  Se120  1  0.25259849  0.41547108  0.24869860  1
  Se  Se121  1  0.24825018  0.41550686  0.58349798  1
  Se  Se122  1  0.58629006  0.08339355  0.91974150  1
  Se  Se123  1  0.58412612  0.41865865  0.91778340  1
  Se  Se124  1  0.58587048  0.74823317  0.91632905  1
  Se  Se125  1  0.91577196  0.41577100  0.58398897  1
  Se  Se126  1  0.91462530  0.41777344  0.91616480  1
  Se  Se127  1  0.91805386  0.75036067  0.58392069  1
  Se  Se128  1  0.91565459  0.75076947  0.91778264  1
  Se  Se129  1  0.58435738  0.25043685  0.08275489  1
  Se  Se130  1  0.58289786  0.58182915  0.07993599  1
  Se  Se131  1  0.58551213  0.58161217  0.75378611  1
  Se  Se132  1  0.91554494  0.58308370  0.07988286  1
  Se  Se133  1  0.91280555  0.91658356  0.08048353  1
  Te  Te134  1  0.08179927  0.08219578  0.08281118  1
  Te  Te135  1  0.08349407  0.08309213  0.42025509  1
  Te  Te136  1  0.08358027  0.08379946  0.74679514  1
  Te  Te137  1  0.08141409  0.41761889  0.08340866  1
  Te  Te138  1  0.08406228  0.41677111  0.41953772  1
  Te  Te139  1  0.08156976  0.41591016  0.74756106  1
  Te  Te140  1  0.07917850  0.74976311  0.08241651  1
  Te  Te141  1  0.08144863  0.75095136  0.41930620  1
  Te  Te142  1  0.41997607  0.08500911  0.08394237  1
  Te  Te143  1  0.41613409  0.08447826  0.41463787  1
  Te  Te144  1  0.41707846  0.08299279  0.75058930  1
  Te  Te145  1  0.41474843  0.41529849  0.41548109  1
  Te  Te146  1  0.41848160  0.41782823  0.74976340  1
  Te  Te147  1  0.41981214  0.75002288  0.08331066  1
  Te  Te148  1  0.41740151  0.75079780  0.41573197  1
  Te  Te149  1  0.41984888  0.74798820  0.75163554  1
  Te  Te150  1  0.75066939  0.08518298  0.41522789  1
  Te  Te151  1  0.74938221  0.08248233  0.75242834  1
  Te  Te152  1  0.74830576  0.41719467  0.08210858  1
  Te  Te153  1  0.75125128  0.74908653  0.07898934  1
  Te  Te154  1  0.74961640  0.74997618  0.75233751  1
  Te  Te155  1  0.08446599  0.25109036  0.24992297  1
  Te  Te156  1  0.08153925  0.25100649  0.91727384  1
  Te  Te157  1  0.08307192  0.58129223  0.24982440  1
  Te  Te158  1  0.08154748  0.58310341  0.58482168  1
  Te  Te159  1  0.07958640  0.58475260  0.91557768  1
  Te  Te160  1  0.08145033  0.91717067  0.24864814  1
  Te  Te161  1  0.08090754  0.91439147  0.91630304  1
  Te  Te162  1  0.41403459  0.24987910  0.58271608  1
  Te  Te163  1  0.42074492  0.25062160  0.91945770  1
  Te  Te164  1  0.41714387  0.58068671  0.24687751  1
  Te  Te165  1  0.41650971  0.58161655  0.58374922  1
  Te  Te166  1  0.42228280  0.58217067  0.91840817  1
  Te  Te167  1  0.41561383  0.91830052  0.58384167  1
  Te  Te168  1  0.41930354  0.91694641  0.91660233  1
  Te  Te169  1  0.75128331  0.25345479  0.58342071  1
  Te  Te170  1  0.74768016  0.25178060  0.91778598  1
  Te  Te171  1  0.74927665  0.58347418  0.24934474  1
  Te  Te172  1  0.75180729  0.58245108  0.58374428  1
  Te  Te173  1  0.74884948  0.58130925  0.91718360  1
  Te  Te174  1  0.75183849  0.91719713  0.24858255  1
  Te  Te175  1  0.75110324  0.91472165  0.58225663  1
  Te  Te176  1  0.25268398  0.08391413  0.25004373  1
  Te  Te177  1  0.24999650  0.08393528  0.91640742  1
  Te  Te178  1  0.25112651  0.41639548  0.91787522  1
  Te  Te179  1  0.25088096  0.75110612  0.24991518  1
  Te  Te180  1  0.24697908  0.75081274  0.58483392  1
  Te  Te181  1  0.24897794  0.74873955  0.91467115  1
  Te  Te182  1  0.58305667  0.08640047  0.24702151  1
  Te  Te183  1  0.58373322  0.08381558  0.58405896  1
  Te  Te184  1  0.58419151  0.41408843  0.24686739  1
  Te  Te185  1  0.58589454  0.41783715  0.58483930  1
  Te  Te186  1  0.58385952  0.74904184  0.24887381  1
  Te  Te187  1  0.58529641  0.74844694  0.58443278  1
  Te  Te188  1  0.91402338  0.08341967  0.24774725  1
  Te  Te189  1  0.91933765  0.08351935  0.58411361  1
  Te  Te190  1  0.91370479  0.08127556  0.91799694  1
  Te  Te191  1  0.91429833  0.41737798  0.24965895  1
  Te  Te192  1  0.91492329  0.74919586  0.24823780  1
  Te  Te193  1  0.25216627  0.25251667  0.08534575  1
  Te  Te194  1  0.25044146  0.25176043  0.41760307  1
  Te  Te195  1  0.24958711  0.25041559  0.74679610  1
  Te  Te196  1  0.25183166  0.58090290  0.08450997  1
  Te  Te197  1  0.25010757  0.58068212  0.41654498  1
  Te  Te198  1  0.24843690  0.58312632  0.74977649  1
  Te  Te199  1  0.25185489  0.91619245  0.08436588  1
  Te  Te200  1  0.24911688  0.91870311  0.41794091  1
  Te  Te201  1  0.24763524  0.91641361  0.74762059  1
  Te  Te202  1  0.58457204  0.25184686  0.41414530  1
  Te  Te203  1  0.58455351  0.25191448  0.75266945  1
  Te  Te204  1  0.58624964  0.58292037  0.41607997  1
  Te  Te205  1  0.58507921  0.91764786  0.08013705  1
  Te  Te206  1  0.58377470  0.91522335  0.41503542  1
  Te  Te207  1  0.58517967  0.91622162  0.75473070  1
  Te  Te208  1  0.91342237  0.25053155  0.08285739  1
  Te  Te209  1  0.91518353  0.25189720  0.41705135  1
  Te  Te210  1  0.91603102  0.25456656  0.75025307  1
  Te  Te211  1  0.91379812  0.58333887  0.41882465  1
  Te  Te212  1  0.91614224  0.58366882  0.75027619  1
  Te  Te213  1  0.91683395  0.91379532  0.41855204  1
  Te  Te214  1  0.91742457  0.91294354  0.75061221  1
