# generated using pymatgen
data_Cd108Cu2(Te3Se)27
_symmetry_space_group_name_H-M   'P 1'
_cell_length_a   19.56885388
_cell_length_b   19.56453553
_cell_length_c   19.56721656
_cell_angle_alpha   90.00225732
_cell_angle_beta   89.99767949
_cell_angle_gamma   90.00013634
_symmetry_Int_Tables_number   1
_chemical_formula_structural   Cd108Cu2(Te3Se)27
_chemical_formula_sum   'Cd108 Cu2 Te81 Se27'
_cell_volume   7491.41719102
_cell_formula_units_Z   1
loop_
 _symmetry_equiv_pos_site_id
 _symmetry_equiv_pos_as_xyz
  1  'x, y, z'
loop_
 _atom_site_type_symbol
 _atom_site_label
 _atom_site_symmetry_multiplicity
 _atom_site_fract_x
 _atom_site_fract_y
 _atom_site_fract_z
 _atom_site_occupancy
  Cd  Cd0  1  0.99531069  0.99538658  0.00304094  1
  Cd  Cd1  1  0.99862463  0.00082355  0.33425346  1
  Cd  Cd2  1  0.00330159  0.99448419  0.66434331  1
  Cd  Cd3  1  0.99427871  0.33749703  0.99636990  1
  Cd  Cd4  1  0.99996767  0.33445639  0.33411367  1
  Cd  Cd5  1  0.99985165  0.33305756  0.65881406  1
  Cd  Cd6  1  0.99163699  0.66719498  0.99925441  1
  Cd  Cd7  1  0.99945941  0.66595754  0.33340632  1
  Cd  Cd8  1  0.99936636  0.67212500  0.66761701  1
  Cd  Cd9  1  0.33471469  0.00059918  0.00091484  1
  Cd  Cd10  1  0.33694872  0.99625736  0.33039643  1
  Cd  Cd11  1  0.32818097  0.00476949  0.66327010  1
  Cd  Cd12  1  0.33910050  0.33743969  0.00470063  1
  Cd  Cd13  1  0.33385958  0.33281368  0.32639558  1
  Cd  Cd14  1  0.33059926  0.33807680  0.66337829  1
  Cd  Cd15  1  0.33492364  0.66571313  0.99955329  1
  Cd  Cd16  1  0.33388462  0.66511842  0.33258414  1
  Cd  Cd17  1  0.33320308  0.66685645  0.66730824  1
  Cd  Cd18  1  0.67100169  0.00349725  0.99752401  1
  Cd  Cd19  1  0.66625620  0.00127179  0.33175000  1
  Cd  Cd20  1  0.66730326  0.99833147  0.66713443  1
  Cd  Cd21  1  0.65918367  0.33416330  0.99964598  1
  Cd  Cd22  1  0.67407207  0.33394596  0.33181638  1
  Cd  Cd23  1  0.67187338  0.33717411  0.67283904  1
  Cd  Cd24  1  0.66076057  0.66554806  0.99939322  1
  Cd  Cd25  1  0.67114960  0.67098656  0.33612148  1
  Cd  Cd26  1  0.66417799  0.66069159  0.67227162  1
  Cd  Cd27  1  0.99958710  0.16795998  0.16660032  1
  Cd  Cd28  1  0.00383597  0.17220386  0.50327343  1
  Cd  Cd29  1  0.99814863  0.16616481  0.83243965  1
  Cd  Cd30  1  0.99482202  0.50414231  0.16239481  1
  Cd  Cd31  1  0.99512961  0.49740186  0.50449092  1
  Cd  Cd32  1  0.99584337  0.49635663  0.83610317  1
  Cd  Cd33  1  0.99433091  0.83782732  0.16247121  1
  Cd  Cd34  1  0.99983677  0.83406270  0.50813087  1
  Cd  Cd35  1  0.99922344  0.82491539  0.83367740  1
  Cd  Cd36  1  0.33795276  0.17072192  0.17019911  1
  Cd  Cd37  1  0.32887193  0.16188330  0.50241406  1
  Cd  Cd38  1  0.33429760  0.16902930  0.83368283  1
  Cd  Cd39  1  0.33492375  0.49112693  0.16595381  1
  Cd  Cd40  1  0.32928638  0.49507254  0.50390006  1
  Cd  Cd41  1  0.33448658  0.50123865  0.83386852  1
  Cd  Cd42  1  0.33873598  0.83654236  0.16992702  1
  Cd  Cd43  1  0.33230329  0.83306056  0.50007185  1
  Cd  Cd44  1  0.33405241  0.83401004  0.83249239  1
  Cd  Cd45  1  0.66944298  0.17055787  0.16194211  1
  Cd  Cd46  1  0.66667694  0.16846813  0.49990673  1
  Cd  Cd47  1  0.66327243  0.16365429  0.83788813  1
  Cd  Cd48  1  0.66303780  0.50386590  0.16237119  1
  Cd  Cd49  1  0.67161247  0.49578887  0.49620535  1
  Cd  Cd50  1  0.66484969  0.49641109  0.83165400  1
  Cd  Cd51  1  0.66756645  0.83300909  0.16492088  1
  Cd  Cd52  1  0.67065086  0.82898604  0.49582421  1
  Cd  Cd53  1  0.66872687  0.83287875  0.84226836  1
  Cd  Cd54  1  0.16695294  0.00094769  0.16678556  1
  Cd  Cd55  1  0.16591566  0.99896925  0.50731770  1
  Cd  Cd56  1  0.16543194  0.99992929  0.83334130  1
  Cd  Cd57  1  0.16999556  0.33742694  0.16991708  1
  Cd  Cd58  1  0.16649981  0.33291865  0.50671861  1
  Cd  Cd59  1  0.16644655  0.33336252  0.83228018  1
  Cd  Cd60  1  0.16626164  0.66701968  0.16650892  1
  Cd  Cd61  1  0.16572193  0.66525677  0.49983714  1
  Cd  Cd62  1  0.16000137  0.66995564  0.82810821  1
  Cd  Cd63  1  0.49808113  0.99626527  0.16910884  1
  Cd  Cd64  1  0.50038092  0.00027204  0.49887784  1
  Cd  Cd65  1  0.50470666  0.00481461  0.83821892  1
  Cd  Cd66  1  0.49824108  0.32885078  0.16256035  1
  Cd  Cd67  1  0.50042995  0.33353387  0.50014859  1
  Cd  Cd68  1  0.50399064  0.33819429  0.83845382  1
  Cd  Cd69  1  0.50450565  0.66114255  0.16209791  1
  Cd  Cd70  1  0.50012980  0.66588310  0.49962323  1
  Cd  Cd71  1  0.50889285  0.66586945  0.83450554  1
  Cd  Cd72  1  0.83197788  0.00045057  0.15798313  1
  Cd  Cd73  1  0.83387649  0.00071378  0.49985286  1
  Cd  Cd74  1  0.82987991  0.99407138  0.83654867  1
  Cd  Cd75  1  0.82775925  0.33049752  0.17015519  1
  Cd  Cd76  1  0.83382371  0.34137374  0.49974409  1
  Cd  Cd77  1  0.83140565  0.34096779  0.83460535  1
  Cd  Cd78  1  0.83584170  0.66220867  0.16167178  1
  Cd  Cd79  1  0.83415749  0.67331640  0.50199359  1
  Cd  Cd80  1  0.83577784  0.66956961  0.83803097  1
  Cd  Cd81  1  0.16686447  0.16780737  0.00150675  1
  Cd  Cd82  1  0.16769548  0.16609995  0.33494380  1
  Cd  Cd83  1  0.16595107  0.16693955  0.65964487  1
  Cd  Cd84  1  0.16565747  0.50117994  0.99881268  1
  Cd  Cd85  1  0.17065907  0.49478267  0.32992132  1
  Cd  Cd86  1  0.16979101  0.49656675  0.66336814  1
  Cd  Cd87  1  0.16633309  0.83270995  0.00004130  1
  Cd  Cd88  1  0.16552635  0.83358824  0.33447685  1
  Cd  Cd89  1  0.15796037  0.83338604  0.66721099  1
  Cd  Cd90  1  0.50926704  0.16665843  0.00082913  1
  Cd  Cd91  1  0.49622513  0.17201485  0.32864410  1
  Cd  Cd92  1  0.50023022  0.16874892  0.66767077  1
  Cd  Cd93  1  0.50397777  0.49535228  0.00396994  1
  Cd  Cd94  1  0.50124598  0.49851302  0.33227640  1
  Cd  Cd95  1  0.50485034  0.50486532  0.67122838  1
  Cd  Cd96  1  0.50538475  0.82890305  0.99566306  1
  Cd  Cd97  1  0.49709251  0.83635290  0.32803006  1
  Cd  Cd98  1  0.50082311  0.83426106  0.66750358  1
  Cd  Cd99  1  0.82825602  0.16311538  0.00354101  1
  Cd  Cd100  1  0.82932445  0.17164932  0.32857363  1
  Cd  Cd101  1  0.83341394  0.16684794  0.66786814  1
  Cd  Cd102  1  0.83799143  0.49911351  0.99971018  1
  Cd  Cd103  1  0.82885349  0.49647480  0.33665592  1
  Cd  Cd104  1  0.83378414  0.49384640  0.66772759  1
  Cd  Cd105  1  0.83566422  0.83624474  0.99547901  1
  Cd  Cd106  1  0.82953290  0.82896826  0.33658694  1
  Cd  Cd107  1  0.83712280  0.82858289  0.66368204  1
  Se  Se108  1  0.07977068  0.75115266  0.74876428  1
  Se  Se109  1  0.42063494  0.41559721  0.08447831  1
  Se  Se110  1  0.74789495  0.08369532  0.08263654  1
  Se  Se111  1  0.75024236  0.41484204  0.41601103  1
  Se  Se112  1  0.75039323  0.41866405  0.75192504  1
  Se  Se113  1  0.75182731  0.74925457  0.41817675  1
  Se  Se114  1  0.08431323  0.25124993  0.58288079  1
  Se  Se115  1  0.08332080  0.91531068  0.58418596  1
  Se  Se116  1  0.41741399  0.25289900  0.24770023  1
  Se  Se117  1  0.41730096  0.91730127  0.24973968  1
  Se  Se118  1  0.74786855  0.24960193  0.24817799  1
  Se  Se119  1  0.75005609  0.91658295  0.91981970  1
  Se  Se120  1  0.24696466  0.08365515  0.58321359  1
  Se  Se121  1  0.25268489  0.41541791  0.24900547  1
  Se  Se122  1  0.24833536  0.41556173  0.58354504  1
  Se  Se123  1  0.58623411  0.08350620  0.91928940  1
  Se  Se124  1  0.58367329  0.41848172  0.91800606  1
  Se  Se125  1  0.58588669  0.74841021  0.91654099  1
  Se  Se126  1  0.91573323  0.41600346  0.58392062  1
  Se  Se127  1  0.91421807  0.41794562  0.91644291  1
  Se  Se128  1  0.91804039  0.75034536  0.58393806  1
  Se  Se129  1  0.91577841  0.75096484  0.91770585  1
  Se  Se130  1  0.58450937  0.25034741  0.08322051  1
  Se  Se131  1  0.58298322  0.58231703  0.08024680  1
  Se  Se132  1  0.58515978  0.58131200  0.75339557  1
  Se  Se133  1  0.91576303  0.58291529  0.08018522  1
  Se  Se134  1  0.91280653  0.91655530  0.08070525  1
  Te  Te135  1  0.08205068  0.08235644  0.08270402  1
  Te  Te136  1  0.08378920  0.08310769  0.42030756  1
  Te  Te137  1  0.08350497  0.08382214  0.74677699  1
  Te  Te138  1  0.08104759  0.41741538  0.08327634  1
  Te  Te139  1  0.08402514  0.41663955  0.41957291  1
  Te  Te140  1  0.08138705  0.41594678  0.74727006  1
  Te  Te141  1  0.07960823  0.74991007  0.08254592  1
  Te  Te142  1  0.08142171  0.75106273  0.41917650  1
  Te  Te143  1  0.41956986  0.08517358  0.08422711  1
  Te  Te144  1  0.41639876  0.08432010  0.41479580  1
  Te  Te145  1  0.41698386  0.08326894  0.75027788  1
  Te  Te146  1  0.41471636  0.41554147  0.41581654  1
  Te  Te147  1  0.41860698  0.41773793  0.74986470  1
  Te  Te148  1  0.41964535  0.75003631  0.08339536  1
  Te  Te149  1  0.41707970  0.75067334  0.41553316  1
  Te  Te150  1  0.42001883  0.74809073  0.75179624  1
  Te  Te151  1  0.75051427  0.08522080  0.41538716  1
  Te  Te152  1  0.74973229  0.08208963  0.75256878  1
  Te  Te153  1  0.74839155  0.41673049  0.08232349  1
  Te  Te154  1  0.75130959  0.74907438  0.07895589  1
  Te  Te155  1  0.75007060  0.74994266  0.75193403  1
  Te  Te156  1  0.08435590  0.25076146  0.25007039  1
  Te  Te157  1  0.08123767  0.25078805  0.91690747  1
  Te  Te158  1  0.08331621  0.58134708  0.24946163  1
  Te  Te159  1  0.08154625  0.58334044  0.58473651  1
  Te  Te160  1  0.07939482  0.58493413  0.91619428  1
  Te  Te161  1  0.08152702  0.91701301  0.24879454  1
  Te  Te162  1  0.08054318  0.91450230  0.91625675  1
  Te  Te163  1  0.41423649  0.24961885  0.58283143  1
  Te  Te164  1  0.42073302  0.25060387  0.91965531  1
  Te  Te165  1  0.41684041  0.58072300  0.24732457  1
  Te  Te166  1  0.41629533  0.58108272  0.58395541  1
  Te  Te167  1  0.42218029  0.58248791  0.91816270  1
  Te  Te168  1  0.41597873  0.91819120  0.58386540  1
  Te  Te169  1  0.41933473  0.91669618  0.91704710  1
  Te  Te170  1  0.75188842  0.25312774  0.58339409  1
  Te  Te171  1  0.74796697  0.25172265  0.91785282  1
  Te  Te172  1  0.74987030  0.58322436  0.24906116  1
  Te  Te173  1  0.75164722  0.58239865  0.58374189  1
  Te  Te174  1  0.74888738  0.58170624  0.91698755  1
  Te  Te175  1  0.75172577  0.91710391  0.24861313  1
  Te  Te176  1  0.75104865  0.91434534  0.58204895  1
  Te  Te177  1  0.25266445  0.08411346  0.25005719  1
  Te  Te178  1  0.25012073  0.08421124  0.91693316  1
  Te  Te179  1  0.25096933  0.41618515  0.91759338  1
  Te  Te180  1  0.25107119  0.75127926  0.24990764  1
  Te  Te181  1  0.24698356  0.75060881  0.58479736  1
  Te  Te182  1  0.24858390  0.74863137  0.91503154  1
  Te  Te183  1  0.58304437  0.08625669  0.24671266  1
  Te  Te184  1  0.58374720  0.08384839  0.58413724  1
  Te  Te185  1  0.58381360  0.41400445  0.24687557  1
  Te  Te186  1  0.58577907  0.41823970  0.58467875  1
  Te  Te187  1  0.58390495  0.74918181  0.24921750  1
  Te  Te188  1  0.58537085  0.74845360  0.58430391  1
  Te  Te189  1  0.91391969  0.08322719  0.24790291  1
  Te  Te190  1  0.91919992  0.08357077  0.58414985  1
  Te  Te191  1  0.91380347  0.08138824  0.91761869  1
  Te  Te192  1  0.91462000  0.41752428  0.24965660  1
  Te  Te193  1  0.91515157  0.74922191  0.24834454  1
  Te  Te194  1  0.25218049  0.25270288  0.08497517  1
  Te  Te195  1  0.25070262  0.25147190  0.41773804  1
  Te  Te196  1  0.24945470  0.25021467  0.74654747  1
  Te  Te197  1  0.25140944  0.58093535  0.08439706  1
  Te  Te198  1  0.25018387  0.58059807  0.41647211  1
  Te  Te199  1  0.24840902  0.58345164  0.74992654  1
  Te  Te200  1  0.25183733  0.91579542  0.08441287  1
  Te  Te201  1  0.24937303  0.91847487  0.41766618  1
  Te  Te202  1  0.24760685  0.91625809  0.74768654  1
  Te  Te203  1  0.58455550  0.25193034  0.41353323  1
  Te  Te204  1  0.58483578  0.25189704  0.75261101  1
  Te  Te205  1  0.58636250  0.58288315  0.41607017  1
  Te  Te206  1  0.58538607  0.91794248  0.08052507  1
  Te  Te207  1  0.58359763  0.91518645  0.41478169  1
  Te  Te208  1  0.58507789  0.91635062  0.75473973  1
  Te  Te209  1  0.91361389  0.25079518  0.08302458  1
  Te  Te210  1  0.91490404  0.25196204  0.41732346  1
  Te  Te211  1  0.91586147  0.25426497  0.74984031  1
  Te  Te212  1  0.91387399  0.58328049  0.41891850  1
  Te  Te213  1  0.91596575  0.58346375  0.75034287  1
  Te  Te214  1  0.91694898  0.91398452  0.41853599  1
  Te  Te215  1  0.91765822  0.91337936  0.75055783  1
  Cu  Cu216  1  0.49992932  0.49990215  0.49974666  1
  Cu  Cu217  1  0.63289179  0.29976866  0.56600027  1
