# generated using pymatgen
data_Cd108Te81AsSe27O2
_symmetry_space_group_name_H-M   'P 1'
_cell_length_a   19.56885388
_cell_length_b   19.56453553
_cell_length_c   19.56721656
_cell_angle_alpha   90.00225732
_cell_angle_beta   89.99767949
_cell_angle_gamma   90.00013634
_symmetry_Int_Tables_number   1
_chemical_formula_structural   Cd108Te81AsSe27O2
_chemical_formula_sum   'Cd108 Te81 As1 Se27 O2'
_cell_volume   7491.41719102
_cell_formula_units_Z   1
loop_
 _symmetry_equiv_pos_site_id
 _symmetry_equiv_pos_as_xyz
  1  'x, y, z'
loop_
 _atom_site_type_symbol
 _atom_site_label
 _atom_site_symmetry_multiplicity
 _atom_site_fract_x
 _atom_site_fract_y
 _atom_site_fract_z
 _atom_site_occupancy
  Cd  Cd0  1  0.99491104  0.99512268  0.00289829  1
  Cd  Cd1  1  0.99857637  0.00044887  0.33426204  1
  Cd  Cd2  1  0.00309660  0.99473511  0.66387931  1
  Cd  Cd3  1  0.99427837  0.33737126  0.99618321  1
  Cd  Cd4  1  0.99999782  0.33429657  0.33373395  1
  Cd  Cd5  1  0.99968548  0.33282288  0.65898648  1
  Cd  Cd6  1  0.99142829  0.66708893  0.99917101  1
  Cd  Cd7  1  0.99954338  0.66602858  0.33325945  1
  Cd  Cd8  1  0.99880762  0.67197410  0.66706723  1
  Cd  Cd9  1  0.33500270  0.00074403  0.00098060  1
  Cd  Cd10  1  0.33693767  0.99630955  0.33008912  1
  Cd  Cd11  1  0.32819879  0.00459309  0.66386066  1
  Cd  Cd12  1  0.33916040  0.33752956  0.00439825  1
  Cd  Cd13  1  0.33370876  0.33231399  0.32652164  1
  Cd  Cd14  1  0.33066886  0.33829159  0.66384734  1
  Cd  Cd15  1  0.33464132  0.66594803  0.99929295  1
  Cd  Cd16  1  0.33399253  0.66503269  0.33273500  1
  Cd  Cd17  1  0.33318169  0.66705012  0.66705435  1
  Cd  Cd18  1  0.67114442  0.00326263  0.99742612  1
  Cd  Cd19  1  0.66639612  0.00128995  0.33190932  1
  Cd  Cd20  1  0.66721882  0.99837820  0.66757859  1
  Cd  Cd21  1  0.65926215  0.33408049  0.99992204  1
  Cd  Cd22  1  0.67370813  0.33356446  0.33146783  1
  Cd  Cd23  1  0.67216384  0.33698587  0.67301574  1
  Cd  Cd24  1  0.66060707  0.66580415  0.99914494  1
  Cd  Cd25  1  0.67106710  0.67118841  0.33666215  1
  Cd  Cd26  1  0.66463967  0.66106285  0.67209477  1
  Cd  Cd27  1  0.00004672  0.16798385  0.16584150  1
  Cd  Cd28  1  0.00346099  0.17200790  0.50348814  1
  Cd  Cd29  1  0.99859007  0.16609038  0.83283500  1
  Cd  Cd30  1  0.99471872  0.50431730  0.16238774  1
  Cd  Cd31  1  0.99529702  0.49731364  0.50449498  1
  Cd  Cd32  1  0.99622090  0.49626372  0.83531091  1
  Cd  Cd33  1  0.99406094  0.83757184  0.16241475  1
  Cd  Cd34  1  0.00004224  0.83393695  0.50821506  1
  Cd  Cd35  1  0.99907780  0.82477504  0.83378394  1
  Cd  Cd36  1  0.33819440  0.17099238  0.17004886  1
  Cd  Cd37  1  0.32863313  0.16227808  0.50237474  1
  Cd  Cd38  1  0.33478970  0.16871444  0.83347075  1
  Cd  Cd39  1  0.33497768  0.49126233  0.16599848  1
  Cd  Cd40  1  0.32926407  0.49460051  0.50396589  1
  Cd  Cd41  1  0.33473565  0.50128757  0.83387307  1
  Cd  Cd42  1  0.33886260  0.83642635  0.16998517  1
  Cd  Cd43  1  0.33260273  0.83274744  0.50023674  1
  Cd  Cd44  1  0.33396022  0.83405773  0.83252935  1
  Cd  Cd45  1  0.66913757  0.17076791  0.16135951  1
  Cd  Cd46  1  0.66674070  0.16784820  0.49972221  1
  Cd  Cd47  1  0.66309030  0.16341380  0.83803476  1
  Cd  Cd48  1  0.66276577  0.50405275  0.16226149  1
  Cd  Cd49  1  0.67146083  0.49608616  0.49644168  1
  Cd  Cd50  1  0.66490114  0.49658077  0.83169075  1
  Cd  Cd51  1  0.66780107  0.83292765  0.16526544  1
  Cd  Cd52  1  0.67077055  0.82891860  0.49579053  1
  Cd  Cd53  1  0.66821527  0.83280757  0.84215109  1
  Cd  Cd54  1  0.16727754  0.00092787  0.16687807  1
  Cd  Cd55  1  0.16618754  0.99922240  0.50754500  1
  Cd  Cd56  1  0.16541977  0.99989645  0.83330910  1
  Cd  Cd57  1  0.16964382  0.33777600  0.17018959  1
  Cd  Cd58  1  0.16662657  0.33259131  0.50653694  1
  Cd  Cd59  1  0.16594980  0.33299420  0.83206369  1
  Cd  Cd60  1  0.16605185  0.66707618  0.16565988  1
  Cd  Cd61  1  0.16610670  0.66526111  0.49994140  1
  Cd  Cd62  1  0.16055023  0.67001518  0.82810242  1
  Cd  Cd63  1  0.49822286  0.99630839  0.16881040  1
  Cd  Cd64  1  0.50056084  0.00035707  0.49873927  1
  Cd  Cd65  1  0.50475794  0.00501381  0.83808632  1
  Cd  Cd66  1  0.49812060  0.32885979  0.16259922  1
  Cd  Cd67  1  0.50028943  0.33363428  0.50001705  1
  Cd  Cd68  1  0.50390358  0.33793636  0.83884883  1
  Cd  Cd69  1  0.50457095  0.66139564  0.16215954  1
  Cd  Cd70  1  0.50034663  0.66586455  0.49971828  1
  Cd  Cd71  1  0.50889957  0.66584723  0.83444016  1
  Cd  Cd72  1  0.83233469  0.00033308  0.15804277  1
  Cd  Cd73  1  0.83438361  0.00067540  0.49995953  1
  Cd  Cd74  1  0.82944005  0.99392827  0.83681412  1
  Cd  Cd75  1  0.82768917  0.33042366  0.17022520  1
  Cd  Cd76  1  0.83396890  0.34096964  0.49952354  1
  Cd  Cd77  1  0.83164934  0.34071902  0.83442285  1
  Cd  Cd78  1  0.83629436  0.66223146  0.16153718  1
  Cd  Cd79  1  0.83425632  0.67357612  0.50186708  1
  Cd  Cd80  1  0.83587811  0.66920900  0.83832831  1
  Cd  Cd81  1  0.16727473  0.16815000  0.00133786  1
  Cd  Cd82  1  0.16736027  0.16615300  0.33501723  1
  Cd  Cd83  1  0.16609830  0.16723857  0.65978607  1
  Cd  Cd84  1  0.16571876  0.50117118  0.99893480  1
  Cd  Cd85  1  0.17079877  0.49450718  0.32962314  1
  Cd  Cd86  1  0.16963068  0.49658186  0.66326926  1
  Cd  Cd87  1  0.16627995  0.83282247  0.00011822  1
  Cd  Cd88  1  0.16545302  0.83350624  0.33386606  1
  Cd  Cd89  1  0.15757020  0.83321541  0.66720294  1
  Cd  Cd90  1  0.50925833  0.16627611  0.00121832  1
  Cd  Cd91  1  0.49630494  0.17190968  0.32826707  1
  Cd  Cd92  1  0.49980812  0.16884308  0.66768549  1
  Cd  Cd93  1  0.50388105  0.49531430  0.00386493  1
  Cd  Cd94  1  0.50090648  0.49891291  0.33230433  1
  Cd  Cd95  1  0.50439866  0.50482166  0.67134857  1
  Cd  Cd96  1  0.50532067  0.82922344  0.99538224  1
  Cd  Cd97  1  0.49679908  0.83639182  0.32855383  1
  Cd  Cd98  1  0.50065397  0.83442667  0.66754574  1
  Cd  Cd99  1  0.82820856  0.16383211  0.00372318  1
  Cd  Cd100  1  0.82964424  0.17112461  0.32838952  1
  Cd  Cd101  1  0.83355554  0.16666879  0.66790885  1
  Cd  Cd102  1  0.83805441  0.49952361  0.99984101  1
  Cd  Cd103  1  0.82866256  0.49705986  0.33664220  1
  Cd  Cd104  1  0.83383508  0.49383788  0.66730977  1
  Cd  Cd105  1  0.83620675  0.83623864  0.99544935  1
  Cd  Cd106  1  0.82963293  0.82938049  0.33645639  1
  Cd  Cd107  1  0.83695481  0.82858126  0.66390440  1
  Se  Se108  1  0.08008353  0.75077475  0.74876319  1
  Se  Se109  1  0.42058662  0.41538316  0.08472141  1
  Se  Se110  1  0.74791129  0.08336779  0.08256529  1
  Se  Se111  1  0.75078528  0.41478475  0.41603115  1
  Se  Se112  1  0.75033843  0.41861805  0.75168780  1
  Se  Se113  1  0.75217173  0.74914582  0.41853580  1
  Se  Se114  1  0.08434143  0.25150875  0.58311520  1
  Se  Se115  1  0.08339036  0.91547655  0.58434807  1
  Se  Se116  1  0.41675434  0.25300931  0.24791906  1
  Se  Se117  1  0.41747226  0.91759467  0.24968044  1
  Se  Se118  1  0.74767272  0.24996803  0.24813372  1
  Se  Se119  1  0.74972209  0.91647104  0.91953116  1
  Se  Se120  1  0.24721687  0.08347559  0.58351823  1
  Se  Se121  1  0.25287967  0.41524718  0.24887066  1
  Se  Se122  1  0.24843025  0.41553959  0.58354426  1
  Se  Se123  1  0.58613952  0.08331729  0.91982277  1
  Se  Se124  1  0.58400409  0.41856378  0.91806311  1
  Se  Se125  1  0.58576368  0.74836422  0.91651718  1
  Se  Se126  1  0.91529438  0.41579223  0.58413188  1
  Se  Se127  1  0.91455919  0.41812401  0.91627385  1
  Se  Se128  1  0.91795418  0.75054001  0.58387379  1
  Se  Se129  1  0.91582078  0.75099674  0.91770047  1
  Se  Se130  1  0.58422633  0.25050016  0.08319687  1
  Se  Se131  1  0.58279772  0.58193956  0.08031891  1
  Se  Se132  1  0.58579418  0.58174728  0.75371869  1
  Se  Se133  1  0.91533787  0.58287688  0.08015863  1
  Se  Se134  1  0.91260679  0.91657870  0.08113486  1
  Te  Te135  1  0.08208688  0.08255146  0.08268406  1
  Te  Te136  1  0.08339570  0.08294011  0.42019298  1
  Te  Te137  1  0.08325047  0.08397665  0.74683313  1
  Te  Te138  1  0.08113592  0.41733179  0.08323643  1
  Te  Te139  1  0.08430329  0.41688227  0.41958288  1
  Te  Te140  1  0.08166082  0.41585125  0.74755624  1
  Te  Te141  1  0.07932737  0.74959311  0.08250856  1
  Te  Te142  1  0.08157921  0.75067574  0.41917328  1
  Te  Te143  1  0.41962701  0.08476575  0.08435044  1
  Te  Te144  1  0.41650247  0.08435292  0.41467665  1
  Te  Te145  1  0.41684476  0.08299376  0.75033035  1
  Te  Te146  1  0.41468076  0.41535480  0.41536796  1
  Te  Te147  1  0.41841831  0.41769825  0.75010442  1
  Te  Te148  1  0.41935538  0.75013153  0.08316781  1
  Te  Te149  1  0.41707152  0.75077383  0.41559552  1
  Te  Te150  1  0.42004679  0.74834012  0.75175422  1
  Te  Te151  1  0.75057090  0.08508117  0.41548637  1
  Te  Te152  1  0.74948174  0.08246713  0.75223350  1
  Te  Te153  1  0.74838646  0.41715260  0.08206799  1
  Te  Te154  1  0.75148144  0.74914443  0.07914721  1
  Te  Te155  1  0.74989188  0.74973304  0.75235750  1
  Te  Te156  1  0.08463948  0.25111791  0.24994258  1
  Te  Te157  1  0.08126820  0.25076568  0.91711305  1
  Te  Te158  1  0.08336086  0.58125314  0.24980915  1
  Te  Te159  1  0.08123210  0.58309253  0.58497629  1
  Te  Te160  1  0.07941387  0.58493536  0.91590318  1
  Te  Te161  1  0.08144722  0.91700046  0.24870229  1
  Te  Te162  1  0.08051970  0.91450862  0.91592640  1
  Te  Te163  1  0.41417607  0.24989261  0.58263946  1
  Te  Te164  1  0.42074585  0.25060233  0.91967181  1
  Te  Te165  1  0.41711845  0.58061395  0.24718324  1
  Te  Te166  1  0.41623870  0.58159691  0.58339618  1
  Te  Te167  1  0.42200125  0.58194581  0.91864010  1
  Te  Te168  1  0.41590458  0.91853361  0.58382151  1
  Te  Te169  1  0.41934299  0.91707468  0.91686006  1
  Te  Te170  1  0.75254621  0.25333426  0.58319293  1
  Te  Te171  1  0.74791547  0.25182885  0.91774307  1
  Te  Te172  1  0.74947982  0.58344667  0.24933983  1
  Te  Te173  1  0.75154840  0.58231550  0.58364009  1
  Te  Te174  1  0.74887501  0.58183284  0.91703626  1
  Te  Te175  1  0.75167075  0.91702771  0.24864024  1
  Te  Te176  1  0.75105218  0.91427070  0.58258270  1
  Te  Te177  1  0.25263972  0.08416082  0.25015574  1
  Te  Te178  1  0.25002420  0.08382186  0.91670522  1
  Te  Te179  1  0.25147941  0.41611794  0.91758659  1
  Te  Te180  1  0.25100338  0.75094377  0.24942735  1
  Te  Te181  1  0.24692959  0.75082796  0.58530811  1
  Te  Te182  1  0.24875729  0.74855851  0.91448520  1
  Te  Te183  1  0.58287763  0.08637770  0.24682662  1
  Te  Te184  1  0.58372108  0.08379486  0.58429693  1
  Te  Te185  1  0.58373943  0.41409542  0.24685648  1
  Te  Te186  1  0.58530999  0.41832492  0.58497285  1
  Te  Te187  1  0.58366988  0.74894236  0.24924533  1
  Te  Te188  1  0.58541179  0.74834542  0.58429909  1
  Te  Te189  1  0.91402746  0.08340384  0.24778569  1
  Te  Te190  1  0.91890882  0.08400403  0.58384727  1
  Te  Te191  1  0.91386056  0.08126088  0.91787525  1
  Te  Te192  1  0.91421529  0.41742949  0.24967442  1
  Te  Te193  1  0.91489550  0.74922497  0.24830215  1
  Te  Te194  1  0.25220999  0.25261809  0.08532148  1
  Te  Te195  1  0.25044022  0.25187726  0.41756809  1
  Te  Te196  1  0.24946329  0.25027249  0.74650937  1
  Te  Te197  1  0.25175008  0.58051514  0.08456374  1
  Te  Te198  1  0.25019673  0.58051982  0.41634601  1
  Te  Te199  1  0.24838891  0.58350289  0.75006451  1
  Te  Te200  1  0.25185444  0.91607880  0.08444813  1
  Te  Te201  1  0.24952628  0.91843758  0.41776548  1
  Te  Te202  1  0.24795379  0.91597939  0.74773105  1
  Te  Te203  1  0.58447019  0.25203875  0.41385804  1
  Te  Te204  1  0.58469615  0.25198739  0.75285829  1
  Te  Te205  1  0.58656752  0.58263709  0.41605612  1
  Te  Te206  1  0.58500658  0.91769343  0.08032886  1
  Te  Te207  1  0.58405170  0.91497818  0.41506549  1
  Te  Te208  1  0.58511231  0.91634667  0.75468883  1
  Te  Te209  1  0.91357997  0.25080010  0.08303028  1
  Te  Te210  1  0.91495165  0.25182723  0.41739608  1
  Te  Te211  1  0.91544426  0.25418524  0.75000635  1
  Te  Te212  1  0.91377068  0.58334563  0.41886495  1
  Te  Te213  1  0.91568565  0.58331077  0.75007384  1
  Te  Te214  1  0.91703922  0.91383761  0.41826833  1
  Te  Te215  1  0.91764170  0.91305848  0.75067478  1
  O  O216  1  0.50019784  0.49999031  0.49992578  1
  As  As217  1  0.63182312  0.29984662  0.56551230  1
  O  O218  1  0.70005763  0.69975045  0.56668063  1
