# generated using pymatgen
data_Cd108Cu2(Te3Se)27
_symmetry_space_group_name_H-M   'P 1'
_cell_length_a   19.56885388
_cell_length_b   19.56453553
_cell_length_c   19.56721656
_cell_angle_alpha   90.00225732
_cell_angle_beta   89.99767949
_cell_angle_gamma   90.00013634
_symmetry_Int_Tables_number   1
_chemical_formula_structural   Cd108Cu2(Te3Se)27
_chemical_formula_sum   'Cd108 Cu2 Te81 Se27'
_cell_volume   7491.41719102
_cell_formula_units_Z   1
loop_
 _symmetry_equiv_pos_site_id
 _symmetry_equiv_pos_as_xyz
  1  'x, y, z'
loop_
 _atom_site_type_symbol
 _atom_site_label
 _atom_site_symmetry_multiplicity
 _atom_site_fract_x
 _atom_site_fract_y
 _atom_site_fract_z
 _atom_site_occupancy
  Cd  Cd0  1  0.99531777  0.99539203  0.00303244  1
  Cd  Cd1  1  0.99862965  0.00082431  0.33425548  1
  Cd  Cd2  1  0.00330572  0.99448048  0.66434844  1
  Cd  Cd3  1  0.99428333  0.33749378  0.99637809  1
  Cd  Cd4  1  0.99996645  0.33445608  0.33411246  1
  Cd  Cd5  1  0.99986118  0.33305223  0.65881707  1
  Cd  Cd6  1  0.99164350  0.66719541  0.99925701  1
  Cd  Cd7  1  0.99945809  0.66595971  0.33340976  1
  Cd  Cd8  1  0.99937020  0.67212745  0.66761400  1
  Cd  Cd9  1  0.33472107  0.00059891  0.00091819  1
  Cd  Cd10  1  0.33693970  0.99624835  0.33039287  1
  Cd  Cd11  1  0.32817882  0.00476235  0.66328276  1
  Cd  Cd12  1  0.33909454  0.33742981  0.00469709  1
  Cd  Cd13  1  0.33383459  0.33277509  0.32638269  1
  Cd  Cd14  1  0.33059981  0.33809018  0.66337127  1
  Cd  Cd15  1  0.33492453  0.66571604  0.99955540  1
  Cd  Cd16  1  0.33389032  0.66511168  0.33258918  1
  Cd  Cd17  1  0.33316584  0.66690143  0.66734752  1
  Cd  Cd18  1  0.67099557  0.00349424  0.99752463  1
  Cd  Cd19  1  0.66625348  0.00126679  0.33174667  1
  Cd  Cd20  1  0.66731640  0.99831569  0.66713810  1
  Cd  Cd21  1  0.65919027  0.33416128  0.99965603  1
  Cd  Cd22  1  0.67405732  0.33396613  0.33180983  1
  Cd  Cd23  1  0.67193645  0.33713373  0.67287823  1
  Cd  Cd24  1  0.66076517  0.66554645  0.99938992  1
  Cd  Cd25  1  0.67119259  0.67102646  0.33609854  1
  Cd  Cd26  1  0.66417756  0.66070147  0.67225308  1
  Cd  Cd27  1  0.99958686  0.16796036  0.16659749  1
  Cd  Cd28  1  0.00383617  0.17220467  0.50326456  1
  Cd  Cd29  1  0.99815810  0.16615883  0.83244413  1
  Cd  Cd30  1  0.99482446  0.50414019  0.16239683  1
  Cd  Cd31  1  0.99514034  0.49740478  0.50448258  1
  Cd  Cd32  1  0.99585095  0.49635551  0.83610201  1
  Cd  Cd33  1  0.99433128  0.83782272  0.16246998  1
  Cd  Cd34  1  0.99984179  0.83406192  0.50812633  1
  Cd  Cd35  1  0.99922337  0.82492353  0.83367828  1
  Cd  Cd36  1  0.33794241  0.17071777  0.17018556  1
  Cd  Cd37  1  0.32886797  0.16188853  0.50240024  1
  Cd  Cd38  1  0.33429572  0.16902904  0.83368511  1
  Cd  Cd39  1  0.33492457  0.49113360  0.16595492  1
  Cd  Cd40  1  0.32925860  0.49507000  0.50389474  1
  Cd  Cd41  1  0.33449015  0.50124756  0.83387792  1
  Cd  Cd42  1  0.33873532  0.83653817  0.16992377  1
  Cd  Cd43  1  0.33230447  0.83306401  0.50007093  1
  Cd  Cd44  1  0.33404792  0.83401587  0.83249222  1
  Cd  Cd45  1  0.66943964  0.17055444  0.16194521  1
  Cd  Cd46  1  0.66670871  0.16845984  0.49990400  1
  Cd  Cd47  1  0.66329593  0.16365550  0.83789544  1
  Cd  Cd48  1  0.66303511  0.50386072  0.16236852  1
  Cd  Cd49  1  0.67159006  0.49576321  0.49624562  1
  Cd  Cd50  1  0.66484682  0.49641565  0.83165936  1
  Cd  Cd51  1  0.66756857  0.83301289  0.16491582  1
  Cd  Cd52  1  0.67063420  0.82898910  0.49582728  1
  Cd  Cd53  1  0.66872309  0.83287946  0.84226784  1
  Cd  Cd54  1  0.16696531  0.00094523  0.16678922  1
  Cd  Cd55  1  0.16591671  0.99896651  0.50731508  1
  Cd  Cd56  1  0.16542930  0.99992701  0.83333769  1
  Cd  Cd57  1  0.16999016  0.33742340  0.16990348  1
  Cd  Cd58  1  0.16650203  0.33291796  0.50670854  1
  Cd  Cd59  1  0.16644439  0.33335961  0.83227938  1
  Cd  Cd60  1  0.16626208  0.66702214  0.16650533  1
  Cd  Cd61  1  0.16572520  0.66525284  0.49983420  1
  Cd  Cd62  1  0.15999737  0.66995914  0.82811448  1
  Cd  Cd63  1  0.49807784  0.99626006  0.16910419  1
  Cd  Cd64  1  0.50037174  0.00025390  0.49885980  1
  Cd  Cd65  1  0.50469630  0.00481357  0.83821847  1
  Cd  Cd66  1  0.49824564  0.32885690  0.16256418  1
  Cd  Cd67  1  0.50038746  0.33346416  0.50013584  1
  Cd  Cd68  1  0.50398653  0.33821255  0.83846244  1
  Cd  Cd69  1  0.50449447  0.66114620  0.16210244  1
  Cd  Cd70  1  0.50013127  0.66594331  0.49962169  1
  Cd  Cd71  1  0.50888279  0.66587022  0.83451737  1
  Cd  Cd72  1  0.83198083  0.00044974  0.15798849  1
  Cd  Cd73  1  0.83387541  0.00070786  0.49985376  1
  Cd  Cd74  1  0.82988968  0.99406320  0.83655361  1
  Cd  Cd75  1  0.82776689  0.33050408  0.17014908  1
  Cd  Cd76  1  0.83379916  0.34133018  0.49977538  1
  Cd  Cd77  1  0.83140618  0.34095400  0.83460716  1
  Cd  Cd78  1  0.83584598  0.66221303  0.16166425  1
  Cd  Cd79  1  0.83415432  0.67331547  0.50198541  1
  Cd  Cd80  1  0.83577996  0.66956931  0.83803665  1
  Cd  Cd81  1  0.16686734  0.16781806  0.00151097  1
  Cd  Cd82  1  0.16769255  0.16609501  0.33494140  1
  Cd  Cd83  1  0.16595126  0.16694009  0.65964733  1
  Cd  Cd84  1  0.16565027  0.50118136  0.99881360  1
  Cd  Cd85  1  0.17065996  0.49478284  0.32992665  1
  Cd  Cd86  1  0.16977634  0.49657172  0.66336725  1
  Cd  Cd87  1  0.16633167  0.83271375  0.00004627  1
  Cd  Cd88  1  0.16553007  0.83359453  0.33447611  1
  Cd  Cd89  1  0.15796162  0.83338790  0.66721641  1
  Cd  Cd90  1  0.50925908  0.16665405  0.00083137  1
  Cd  Cd91  1  0.49621049  0.17201066  0.32864235  1
  Cd  Cd92  1  0.50023726  0.16876337  0.66765012  1
  Cd  Cd93  1  0.50396809  0.49536710  0.00396862  1
  Cd  Cd94  1  0.50124357  0.49850642  0.33225068  1
  Cd  Cd95  1  0.50489000  0.50480887  0.67120453  1
  Cd  Cd96  1  0.50538265  0.82890984  0.99566639  1
  Cd  Cd97  1  0.49709011  0.83635116  0.32803637  1
  Cd  Cd98  1  0.50082497  0.83425921  0.66750063  1
  Cd  Cd99  1  0.82826147  0.16311928  0.00353461  1
  Cd  Cd100  1  0.82933173  0.17165320  0.32857739  1
  Cd  Cd101  1  0.83341893  0.16684172  0.66788289  1
  Cd  Cd102  1  0.83798817  0.49911707  0.99971285  1
  Cd  Cd103  1  0.82886113  0.49648214  0.33665815  1
  Cd  Cd104  1  0.83378355  0.49384838  0.66771416  1
  Cd  Cd105  1  0.83566402  0.83624161  0.99548475  1
  Cd  Cd106  1  0.82954457  0.82897621  0.33658524  1
  Cd  Cd107  1  0.83712097  0.82858959  0.66368549  1
  Se  Se108  1  0.07977397  0.75114932  0.74876090  1
  Se  Se109  1  0.42063956  0.41559511  0.08447966  1
  Se  Se110  1  0.74789496  0.08369552  0.08263477  1
  Se  Se111  1  0.75023601  0.41483732  0.41598760  1
  Se  Se112  1  0.75041131  0.41870107  0.75195556  1
  Se  Se113  1  0.75182132  0.74923913  0.41818220  1
  Se  Se114  1  0.08431682  0.25124996  0.58288681  1
  Se  Se115  1  0.08332047  0.91531128  0.58418429  1
  Se  Se116  1  0.41742978  0.25290772  0.24771459  1
  Se  Se117  1  0.41730249  0.91730613  0.24974281  1
  Se  Se118  1  0.74785126  0.24959577  0.24818266  1
  Se  Se119  1  0.75005445  0.91658656  0.91981691  1
  Se  Se120  1  0.24696622  0.08366129  0.58320866  1
  Se  Se121  1  0.25270204  0.41541917  0.24901671  1
  Se  Se122  1  0.24833575  0.41554299  0.58355497  1
  Se  Se123  1  0.58623884  0.08351120  0.91929136  1
  Se  Se124  1  0.58367802  0.41847252  0.91799816  1
  Se  Se125  1  0.58588864  0.74840761  0.91653601  1
  Se  Se126  1  0.91573275  0.41601233  0.58393322  1
  Se  Se127  1  0.91420995  0.41794366  0.91643420  1
  Se  Se128  1  0.91804285  0.75034412  0.58393933  1
  Se  Se129  1  0.91577188  0.75096218  0.91770195  1
  Se  Se130  1  0.58450982  0.25035110  0.08321598  1
  Se  Se131  1  0.58298560  0.58230560  0.08024516  1
  Se  Se132  1  0.58518682  0.58132245  0.75342523  1
  Se  Se133  1  0.91575348  0.58292024  0.08017938  1
  Se  Se134  1  0.91280029  0.91655423  0.08070480  1
  Te  Te135  1  0.08204436  0.08235888  0.08270181  1
  Te  Te136  1  0.08378917  0.08310914  0.42030463  1
  Te  Te137  1  0.08350724  0.08382323  0.74677885  1
  Te  Te138  1  0.08105375  0.41741116  0.08327601  1
  Te  Te139  1  0.08402401  0.41664474  0.41957548  1
  Te  Te140  1  0.08139252  0.41595307  0.74727364  1
  Te  Te141  1  0.07960847  0.74990940  0.08254834  1
  Te  Te142  1  0.08142151  0.75105917  0.41917463  1
  Te  Te143  1  0.41956884  0.08517656  0.08422319  1
  Te  Te144  1  0.41642208  0.08433885  0.41480742  1
  Te  Te145  1  0.41698829  0.08327194  0.75027583  1
  Te  Te146  1  0.41474355  0.41556034  0.41584675  1
  Te  Te147  1  0.41859380  0.41771145  0.74985941  1
  Te  Te148  1  0.41964385  0.75003257  0.08339505  1
  Te  Te149  1  0.41708129  0.75066241  0.41553359  1
  Te  Te150  1  0.42001522  0.74807727  0.75177920  1
  Te  Te151  1  0.75051167  0.08520678  0.41537320  1
  Te  Te152  1  0.74971907  0.08209546  0.75256500  1
  Te  Te153  1  0.74838637  0.41672872  0.08232375  1
  Te  Te154  1  0.75130836  0.74907315  0.07896064  1
  Te  Te155  1  0.75006731  0.74994028  0.75193151  1
  Te  Te156  1  0.08435709  0.25076333  0.25007627  1
  Te  Te157  1  0.08124154  0.25078984  0.91690494  1
  Te  Te158  1  0.08331720  0.58134660  0.24946728  1
  Te  Te159  1  0.08155038  0.58333585  0.58474196  1
  Te  Te160  1  0.07939793  0.58493254  0.91618957  1
  Te  Te161  1  0.08152698  0.91700863  0.24880195  1
  Te  Te162  1  0.08054654  0.91450370  0.91625712  1
  Te  Te163  1  0.41429175  0.24964288  0.58281881  1
  Te  Te164  1  0.42073860  0.25060903  0.91965121  1
  Te  Te165  1  0.41684362  0.58072123  0.24733979  1
  Te  Te166  1  0.41628405  0.58106947  0.58392078  1
  Te  Te167  1  0.42217722  0.58248493  0.91815821  1
  Te  Te168  1  0.41598374  0.91818487  0.58386300  1
  Te  Te169  1  0.41932984  0.91669308  0.91704882  1
  Te  Te170  1  0.75179886  0.25320104  0.58330649  1
  Te  Te171  1  0.74796393  0.25172749  0.91785055  1
  Te  Te172  1  0.74985347  0.58322505  0.24907743  1
  Te  Te173  1  0.75164254  0.58240715  0.58375007  1
  Te  Te174  1  0.74888530  0.58170562  0.91698386  1
  Te  Te175  1  0.75172191  0.91710560  0.24861538  1
  Te  Te176  1  0.75104367  0.91434984  0.58205235  1
  Te  Te177  1  0.25265896  0.08411306  0.25005789  1
  Te  Te178  1  0.25012013  0.08420644  0.91693077  1
  Te  Te179  1  0.25097194  0.41618571  0.91758962  1
  Te  Te180  1  0.25107013  0.75127454  0.24991142  1
  Te  Te181  1  0.24700288  0.75059369  0.58479723  1
  Te  Te182  1  0.24859220  0.74862778  0.91502832  1
  Te  Te183  1  0.58304573  0.08626974  0.24673374  1
  Te  Te184  1  0.58373155  0.08385541  0.58414193  1
  Te  Te185  1  0.58381594  0.41399389  0.24688659  1
  Te  Te186  1  0.58569828  0.41832015  0.58457419  1
  Te  Te187  1  0.58390314  0.74916306  0.24923004  1
  Te  Te188  1  0.58537412  0.74844891  0.58430351  1
  Te  Te189  1  0.91391501  0.08322577  0.24790384  1
  Te  Te190  1  0.91919969  0.08356660  0.58414757  1
  Te  Te191  1  0.91380138  0.08139023  0.91762292  1
  Te  Te192  1  0.91462229  0.41752394  0.24965412  1
  Te  Te193  1  0.91514944  0.74922418  0.24834647  1
  Te  Te194  1  0.25218409  0.25270024  0.08497465  1
  Te  Te195  1  0.25072311  0.25149600  0.41774235  1
  Te  Te196  1  0.24945780  0.25021815  0.74654324  1
  Te  Te197  1  0.25141339  0.58093551  0.08439810  1
  Te  Te198  1  0.25020251  0.58059728  0.41647465  1
  Te  Te199  1  0.24842626  0.58344843  0.74991356  1
  Te  Te200  1  0.25183209  0.91579870  0.08440657  1
  Te  Te201  1  0.24937340  0.91847157  0.41766766  1
  Te  Te202  1  0.24761215  0.91625664  0.74768930  1
  Te  Te203  1  0.58454326  0.25195841  0.41358756  1
  Te  Te204  1  0.58477517  0.25184624  0.75264816  1
  Te  Te205  1  0.58633517  0.58286748  0.41607529  1
  Te  Te206  1  0.58538377  0.91793816  0.08052552  1
  Te  Te207  1  0.58360215  0.91519368  0.41479179  1
  Te  Te208  1  0.58508178  0.91634709  0.75472910  1
  Te  Te209  1  0.91361343  0.25079417  0.08302457  1
  Te  Te210  1  0.91491599  0.25195110  0.41731374  1
  Te  Te211  1  0.91586386  0.25426786  0.74984901  1
  Te  Te212  1  0.91387703  0.58327860  0.41891266  1
  Te  Te213  1  0.91596178  0.58346442  0.75034297  1
  Te  Te214  1  0.91694061  0.91398742  0.41853140  1
  Te  Te215  1  0.91765492  0.91337762  0.75055541  1
  Cu  Cu216  1  0.49991689  0.49999106  0.49972069  1
  Cu  Cu217  1  0.63297933  0.29967559  0.56603471  1
