# generated using pymatgen
data_Cd107(Te3Se)27
_symmetry_space_group_name_H-M   'P 1'
_cell_length_a   19.56885388
_cell_length_b   19.56453553
_cell_length_c   19.56721656
_cell_angle_alpha   90.00225732
_cell_angle_beta   89.99767949
_cell_angle_gamma   90.00013634
_symmetry_Int_Tables_number   1
_chemical_formula_structural   Cd107(Te3Se)27
_chemical_formula_sum   'Cd107 Te81 Se27'
_cell_volume   7491.41719102
_cell_formula_units_Z   1
loop_
 _symmetry_equiv_pos_site_id
 _symmetry_equiv_pos_as_xyz
  1  'x, y, z'
loop_
 _atom_site_type_symbol
 _atom_site_label
 _atom_site_symmetry_multiplicity
 _atom_site_fract_x
 _atom_site_fract_y
 _atom_site_fract_z
 _atom_site_occupancy
  Cd  Cd0  1  0.99518823  0.99535920  0.00308273  1
  Cd  Cd1  1  0.99838525  0.00037882  0.33455682  1
  Cd  Cd2  1  0.00310770  0.99475095  0.66402798  1
  Cd  Cd3  1  0.99425981  0.33751586  0.99634553  1
  Cd  Cd4  1  0.99996565  0.33427690  0.33375456  1
  Cd  Cd5  1  0.99973766  0.33312477  0.65885112  1
  Cd  Cd6  1  0.99147659  0.66684230  0.99932239  1
  Cd  Cd7  1  0.99930094  0.66598756  0.33380929  1
  Cd  Cd8  1  0.99892295  0.67197051  0.66730261  1
  Cd  Cd9  1  0.33481335  0.00076696  0.00084263  1
  Cd  Cd10  1  0.33720579  0.99633898  0.33012011  1
  Cd  Cd11  1  0.32817234  0.00459774  0.66383891  1
  Cd  Cd12  1  0.33902265  0.33733260  0.00447544  1
  Cd  Cd13  1  0.33346967  0.33246594  0.32669795  1
  Cd  Cd14  1  0.33045026  0.33818083  0.66329709  1
  Cd  Cd15  1  0.33464450  0.66620956  0.99967356  1
  Cd  Cd16  1  0.33396840  0.66528498  0.33310669  1
  Cd  Cd17  1  0.33338532  0.66717914  0.66685591  1
  Cd  Cd18  1  0.67071764  0.00361747  0.99746671  1
  Cd  Cd19  1  0.66627736  0.00125879  0.33132031  1
  Cd  Cd20  1  0.66729292  0.99819253  0.66694236  1
  Cd  Cd21  1  0.65911311  0.33429243  0.99955886  1
  Cd  Cd22  1  0.67364857  0.33408075  0.33139973  1
  Cd  Cd23  1  0.67172816  0.33693646  0.67223361  1
  Cd  Cd24  1  0.66046054  0.66559465  0.99908026  1
  Cd  Cd25  1  0.67131168  0.67103504  0.33601621  1
  Cd  Cd26  1  0.66467714  0.66127768  0.67236275  1
  Cd  Cd27  1  0.99941003  0.16808517  0.16592185  1
  Cd  Cd28  1  0.00334702  0.17206866  0.50348895  1
  Cd  Cd29  1  0.99865506  0.16593005  0.83226294  1
  Cd  Cd30  1  0.99452456  0.50427856  0.16180269  1
  Cd  Cd31  1  0.99517847  0.49725127  0.50457357  1
  Cd  Cd32  1  0.99577292  0.49670974  0.83566226  1
  Cd  Cd33  1  0.99415895  0.83771594  0.16244414  1
  Cd  Cd34  1  0.99978856  0.83376696  0.50845340  1
  Cd  Cd35  1  0.99885718  0.82497357  0.83404113  1
  Cd  Cd36  1  0.33826750  0.17086010  0.17019499  1
  Cd  Cd37  1  0.32875845  0.16226701  0.50230092  1
  Cd  Cd38  1  0.33458965  0.16876505  0.83322434  1
  Cd  Cd39  1  0.33473401  0.49119477  0.16645330  1
  Cd  Cd40  1  0.32988167  0.49470464  0.50372568  1
  Cd  Cd41  1  0.33462390  0.50134939  0.83410236  1
  Cd  Cd42  1  0.33836041  0.83636742  0.16998922  1
  Cd  Cd43  1  0.33220729  0.83273482  0.50028175  1
  Cd  Cd44  1  0.33395977  0.83420109  0.83260457  1
  Cd  Cd45  1  0.66928547  0.17093812  0.16175613  1
  Cd  Cd46  1  0.66708901  0.16818218  0.49991068  1
  Cd  Cd47  1  0.66329160  0.16360375  0.83796356  1
  Cd  Cd48  1  0.66264788  0.50399094  0.16225451  1
  Cd  Cd49  1  0.67171819  0.49594230  0.49599183  1
  Cd  Cd50  1  0.66486932  0.49630574  0.83174483  1
  Cd  Cd51  1  0.66779139  0.83265684  0.16490153  1
  Cd  Cd52  1  0.67043514  0.82850300  0.49589001  1
  Cd  Cd53  1  0.66854797  0.83317408  0.84194599  1
  Cd  Cd54  1  0.16778991  0.00093849  0.16682869  1
  Cd  Cd55  1  0.16620161  0.99925294  0.50764694  1
  Cd  Cd56  1  0.16585368  0.00000591  0.83319680  1
  Cd  Cd57  1  0.16994282  0.33792902  0.16995848  1
  Cd  Cd58  1  0.16645883  0.33274486  0.50658929  1
  Cd  Cd59  1  0.16620639  0.33331309  0.83215529  1
  Cd  Cd60  1  0.16624923  0.66670517  0.16617840  1
  Cd  Cd61  1  0.16575246  0.66521242  0.49989160  1
  Cd  Cd62  1  0.16023278  0.67001703  0.82822361  1
  Cd  Cd63  1  0.49789041  0.99653328  0.16877250  1
  Cd  Cd64  1  0.50051943  0.00037077  0.49899156  1
  Cd  Cd65  1  0.50457682  0.00469827  0.83823916  1
  Cd  Cd66  1  0.49795023  0.32897939  0.16251767  1
  Cd  Cd67  1  0.50041131  0.33347009  0.50049033  1
  Cd  Cd68  1  0.50392166  0.33817782  0.83881554  1
  Cd  Cd69  1  0.50434370  0.66128378  0.16238324  1
  Cd  Cd70  1  0.50935533  0.66590076  0.83475244  1
  Cd  Cd71  1  0.83235845  0.00027788  0.15808865  1
  Cd  Cd72  1  0.83424195  0.00101793  0.49953999  1
  Cd  Cd73  1  0.82949054  0.99385837  0.83669006  1
  Cd  Cd74  1  0.82787049  0.33017628  0.17016609  1
  Cd  Cd75  1  0.83394817  0.34077321  0.50001279  1
  Cd  Cd76  1  0.83162437  0.34064853  0.83424326  1
  Cd  Cd77  1  0.83568534  0.66214560  0.16187150  1
  Cd  Cd78  1  0.83441557  0.67355364  0.50190709  1
  Cd  Cd79  1  0.83565595  0.66988135  0.83822804  1
  Cd  Cd80  1  0.16686620  0.16803262  0.00105010  1
  Cd  Cd81  1  0.16728927  0.16612822  0.33488466  1
  Cd  Cd82  1  0.16633168  0.16743095  0.65971274  1
  Cd  Cd83  1  0.16540458  0.50098748  0.99916827  1
  Cd  Cd84  1  0.17051572  0.49465799  0.32962700  1
  Cd  Cd85  1  0.16942385  0.49654211  0.66329021  1
  Cd  Cd86  1  0.16631406  0.83283698  0.00014361  1
  Cd  Cd87  1  0.16559873  0.83363786  0.33428169  1
  Cd  Cd88  1  0.15793279  0.83330030  0.66717834  1
  Cd  Cd89  1  0.50954608  0.16654496  0.00116039  1
  Cd  Cd90  1  0.49649367  0.17209998  0.32787452  1
  Cd  Cd91  1  0.49985176  0.16909176  0.66785973  1
  Cd  Cd92  1  0.50404151  0.49550852  0.00369884  1
  Cd  Cd93  1  0.50121831  0.49897934  0.33265087  1
  Cd  Cd94  1  0.50492262  0.50457885  0.67099396  1
  Cd  Cd95  1  0.50518226  0.82868214  0.99545009  1
  Cd  Cd96  1  0.49684605  0.83650846  0.32828365  1
  Cd  Cd97  1  0.50094055  0.83428133  0.66750765  1
  Cd  Cd98  1  0.82821101  0.16332127  0.00337013  1
  Cd  Cd99  1  0.82930213  0.17167970  0.32865855  1
  Cd  Cd100  1  0.83316903  0.16702170  0.66807135  1
  Cd  Cd101  1  0.83838255  0.49931576  0.99957043  1
  Cd  Cd102  1  0.82842219  0.49638857  0.33690940  1
  Cd  Cd103  1  0.83376626  0.49403469  0.66731242  1
  Cd  Cd104  1  0.83556364  0.83639024  0.99561721  1
  Cd  Cd105  1  0.82964982  0.82944053  0.33673066  1
  Cd  Cd106  1  0.83698673  0.82852410  0.66376250  1
  Se  Se107  1  0.08002251  0.75090492  0.74856584  1
  Se  Se108  1  0.42060570  0.41538205  0.08469081  1
  Se  Se109  1  0.74814171  0.08352841  0.08285707  1
  Se  Se110  1  0.75054246  0.41499345  0.41617435  1
  Se  Se111  1  0.75037999  0.41872479  0.75190170  1
  Se  Se112  1  0.75207061  0.74915727  0.41834107  1
  Se  Se113  1  0.08463919  0.25150971  0.58341844  1
  Se  Se114  1  0.08332639  0.91556659  0.58420455  1
  Se  Se115  1  0.41708588  0.25307825  0.24776157  1
  Se  Se116  1  0.41745805  0.91726145  0.24958833  1
  Se  Se117  1  0.74773820  0.24960065  0.24814036  1
  Se  Se118  1  0.74982492  0.91645244  0.91942841  1
  Se  Se119  1  0.24728411  0.08401558  0.58331417  1
  Se  Se120  1  0.25260250  0.41547314  0.24870381  1
  Se  Se121  1  0.24828180  0.41553378  0.58349335  1
  Se  Se122  1  0.58629397  0.08339150  0.91973885  1
  Se  Se123  1  0.58411997  0.41865978  0.91778067  1
  Se  Se124  1  0.58586480  0.74823570  0.91632339  1
  Se  Se125  1  0.91576513  0.41577268  0.58398727  1
  Se  Se126  1  0.91462781  0.41776751  0.91616881  1
  Se  Se127  1  0.91804997  0.75035584  0.58392413  1
  Se  Se128  1  0.91565667  0.75077286  0.91778204  1
  Se  Se129  1  0.58435449  0.25043647  0.08276053  1
  Se  Se130  1  0.58289124  0.58183737  0.07995508  1
  Se  Se131  1  0.58550454  0.58161980  0.75374835  1
  Se  Se132  1  0.91554612  0.58307923  0.07989072  1
  Se  Se133  1  0.91280456  0.91658648  0.08047918  1
  Te  Te134  1  0.08180869  0.08219980  0.08281360  1
  Te  Te135  1  0.08349219  0.08308940  0.42025756  1
  Te  Te136  1  0.08358040  0.08379763  0.74679144  1
  Te  Te137  1  0.08140923  0.41761962  0.08340789  1
  Te  Te138  1  0.08406234  0.41677071  0.41953317  1
  Te  Te139  1  0.08157077  0.41590781  0.74756187  1
  Te  Te140  1  0.07918228  0.74976537  0.08242150  1
  Te  Te141  1  0.08144740  0.75095061  0.41930266  1
  Te  Te142  1  0.41997064  0.08500677  0.08394312  1
  Te  Te143  1  0.41613584  0.08448021  0.41463782  1
  Te  Te144  1  0.41707565  0.08299976  0.75058578  1
  Te  Te145  1  0.41474510  0.41528043  0.41548162  1
  Te  Te146  1  0.41847191  0.41782802  0.74976160  1
  Te  Te147  1  0.41980770  0.75001961  0.08330731  1
  Te  Te148  1  0.41742196  0.75076545  0.41574056  1
  Te  Te149  1  0.41985531  0.74798931  0.75165482  1
  Te  Te150  1  0.75066243  0.08518636  0.41523014  1
  Te  Te151  1  0.74937898  0.08247543  0.75242129  1
  Te  Te152  1  0.74831438  0.41719341  0.08211429  1
  Te  Te153  1  0.75124611  0.74908223  0.07899796  1
  Te  Te154  1  0.74962094  0.74998701  0.75233665  1
  Te  Te155  1  0.08446867  0.25109143  0.24992421  1
  Te  Te156  1  0.08154032  0.25100366  0.91727314  1
  Te  Te157  1  0.08307165  0.58129197  0.24981988  1
  Te  Te158  1  0.08154500  0.58310275  0.58482233  1
  Te  Te159  1  0.07958841  0.58475716  0.91557743  1
  Te  Te160  1  0.08145312  0.91717508  0.24865263  1
  Te  Te161  1  0.08091088  0.91439076  0.91630602  1
  Te  Te162  1  0.41403596  0.24987576  0.58271994  1
  Te  Te163  1  0.42073849  0.25061838  0.91945331  1
  Te  Te164  1  0.41713145  0.58069222  0.24686460  1
  Te  Te165  1  0.41652691  0.58162579  0.58373554  1
  Te  Te166  1  0.42226643  0.58217623  0.91841322  1
  Te  Te167  1  0.41560725  0.91832391  0.58384556  1
  Te  Te168  1  0.41930078  0.91694699  0.91660355  1
  Te  Te169  1  0.75128087  0.25344669  0.58342331  1
  Te  Te170  1  0.74768313  0.25177768  0.91777981  1
  Te  Te171  1  0.74928011  0.58346217  0.24934308  1
  Te  Te172  1  0.75180873  0.58245356  0.58373555  1
  Te  Te173  1  0.74885818  0.58131465  0.91718761  1
  Te  Te174  1  0.75183921  0.91719816  0.24858365  1
  Te  Te175  1  0.75110454  0.91471972  0.58225724  1
  Te  Te176  1  0.25268474  0.08391308  0.25004702  1
  Te  Te177  1  0.24999515  0.08393944  0.91641172  1
  Te  Te178  1  0.25112681  0.41640136  0.91787292  1
  Te  Te179  1  0.25087829  0.75111303  0.24991157  1
  Te  Te180  1  0.24695693  0.75082008  0.58483916  1
  Te  Te181  1  0.24897655  0.74874123  0.91467039  1
  Te  Te182  1  0.58305564  0.08639778  0.24702580  1
  Te  Te183  1  0.58373515  0.08381631  0.58405473  1
  Te  Te184  1  0.58419747  0.41408893  0.24687230  1
  Te  Te185  1  0.58589459  0.41782695  0.58483780  1
  Te  Te186  1  0.58384351  0.74904164  0.24886324  1
  Te  Te187  1  0.58529372  0.74840608  0.58441796  1
  Te  Te188  1  0.91402504  0.08341920  0.24775200  1
  Te  Te189  1  0.91933683  0.08352182  0.58411476  1
  Te  Te190  1  0.91371187  0.08127511  0.91798994  1
  Te  Te191  1  0.91429676  0.41738076  0.24965669  1
  Te  Te192  1  0.91492718  0.74919855  0.24823824  1
  Te  Te193  1  0.25216013  0.25251451  0.08534393  1
  Te  Te194  1  0.25044073  0.25175351  0.41760156  1
  Te  Te195  1  0.24959145  0.25041490  0.74679434  1
  Te  Te196  1  0.25183203  0.58090611  0.08450689  1
  Te  Te197  1  0.25009602  0.58067104  0.41654442  1
  Te  Te198  1  0.24842281  0.58312815  0.74978659  1
  Te  Te199  1  0.25185653  0.91619435  0.08436729  1
  Te  Te200  1  0.24910802  0.91870925  0.41793771  1
  Te  Te201  1  0.24763502  0.91641247  0.74762130  1
  Te  Te202  1  0.58457273  0.25184135  0.41414526  1
  Te  Te203  1  0.58455303  0.25190855  0.75266611  1
  Te  Te204  1  0.58625553  0.58294584  0.41609059  1
  Te  Te205  1  0.58507351  0.91764221  0.08013941  1
  Te  Te206  1  0.58376847  0.91522682  0.41503455  1
  Te  Te207  1  0.58518172  0.91623441  0.75473468  1
  Te  Te208  1  0.91342649  0.25053866  0.08285857  1
  Te  Te209  1  0.91518097  0.25189535  0.41705520  1
  Te  Te210  1  0.91603478  0.25455905  0.75024785  1
  Te  Te211  1  0.91380656  0.58333822  0.41882414  1
  Te  Te212  1  0.91614550  0.58366914  0.75027612  1
  Te  Te213  1  0.91683758  0.91379623  0.41855283  1
  Te  Te214  1  0.91742314  0.91294515  0.75060987  1
