# generated using pymatgen
data_Cd108Te81AsSe27O2
_symmetry_space_group_name_H-M   'P 1'
_cell_length_a   19.56885388
_cell_length_b   19.56453553
_cell_length_c   19.56721656
_cell_angle_alpha   90.00225732
_cell_angle_beta   89.99767949
_cell_angle_gamma   90.00013634
_symmetry_Int_Tables_number   1
_chemical_formula_structural   Cd108Te81AsSe27O2
_chemical_formula_sum   'Cd108 Te81 As1 Se27 O2'
_cell_volume   7491.41719102
_cell_formula_units_Z   1
loop_
 _symmetry_equiv_pos_site_id
 _symmetry_equiv_pos_as_xyz
  1  'x, y, z'
loop_
 _atom_site_type_symbol
 _atom_site_label
 _atom_site_symmetry_multiplicity
 _atom_site_fract_x
 _atom_site_fract_y
 _atom_site_fract_z
 _atom_site_occupancy
  Cd  Cd0  1  0.99492344  0.99513780  0.00289698  1
  Cd  Cd1  1  0.99857399  0.00044818  0.33426523  1
  Cd  Cd2  1  0.00308208  0.99474864  0.66387919  1
  Cd  Cd3  1  0.99428603  0.33735947  0.99618892  1
  Cd  Cd4  1  0.99999772  0.33428814  0.33372964  1
  Cd  Cd5  1  0.99968806  0.33281503  0.65899425  1
  Cd  Cd6  1  0.99144322  0.66708357  0.99918151  1
  Cd  Cd7  1  0.99954036  0.66602254  0.33326877  1
  Cd  Cd8  1  0.99881456  0.67195207  0.66707409  1
  Cd  Cd9  1  0.33499885  0.00074206  0.00098050  1
  Cd  Cd10  1  0.33695064  0.99632306  0.33010023  1
  Cd  Cd11  1  0.32821309  0.00458525  0.66386150  1
  Cd  Cd12  1  0.33914242  0.33752058  0.00438201  1
  Cd  Cd13  1  0.33371928  0.33233500  0.32652481  1
  Cd  Cd14  1  0.33068705  0.33826895  0.66383209  1
  Cd  Cd15  1  0.33463014  0.66595639  0.99929214  1
  Cd  Cd16  1  0.33399524  0.66502163  0.33274828  1
  Cd  Cd17  1  0.33318980  0.66704714  0.66705455  1
  Cd  Cd18  1  0.67113252  0.00326430  0.99743017  1
  Cd  Cd19  1  0.66639379  0.00129167  0.33191348  1
  Cd  Cd20  1  0.66721116  0.99837362  0.66755361  1
  Cd  Cd21  1  0.65928626  0.33407404  0.99991733  1
  Cd  Cd22  1  0.67367418  0.33351824  0.33147425  1
  Cd  Cd23  1  0.67219321  0.33691647  0.67309254  1
  Cd  Cd24  1  0.66060751  0.66580646  0.99913963  1
  Cd  Cd25  1  0.67113076  0.67127513  0.33662455  1
  Cd  Cd26  1  0.66466330  0.66110763  0.67194802  1
  Cd  Cd27  1  0.00005361  0.16798276  0.16584190  1
  Cd  Cd28  1  0.00345162  0.17200346  0.50348251  1
  Cd  Cd29  1  0.99858825  0.16609570  0.83283176  1
  Cd  Cd30  1  0.99472472  0.50430329  0.16239964  1
  Cd  Cd31  1  0.99529842  0.49733111  0.50448507  1
  Cd  Cd32  1  0.99622354  0.49626125  0.83530320  1
  Cd  Cd33  1  0.99406940  0.83756898  0.16242925  1
  Cd  Cd34  1  0.00004822  0.83395099  0.50818505  1
  Cd  Cd35  1  0.99908107  0.82479150  0.83377956  1
  Cd  Cd36  1  0.33819656  0.17099301  0.17005823  1
  Cd  Cd37  1  0.32864154  0.16227514  0.50237676  1
  Cd  Cd38  1  0.33479147  0.16870205  0.83346118  1
  Cd  Cd39  1  0.33496447  0.49126603  0.16601165  1
  Cd  Cd40  1  0.32922366  0.49458563  0.50393653  1
  Cd  Cd41  1  0.33472882  0.50128515  0.83386367  1
  Cd  Cd42  1  0.33885789  0.83642864  0.16998553  1
  Cd  Cd43  1  0.33260949  0.83275992  0.50024812  1
  Cd  Cd44  1  0.33396589  0.83405697  0.83252315  1
  Cd  Cd45  1  0.66913620  0.17076320  0.16139970  1
  Cd  Cd46  1  0.66671966  0.16811975  0.49989175  1
  Cd  Cd47  1  0.66308952  0.16341193  0.83801695  1
  Cd  Cd48  1  0.66276006  0.50405403  0.16227774  1
  Cd  Cd49  1  0.67168027  0.49616670  0.49625821  1
  Cd  Cd50  1  0.66491801  0.49655411  0.83163759  1
  Cd  Cd51  1  0.66780283  0.83293937  0.16527738  1
  Cd  Cd52  1  0.67074292  0.82901042  0.49576172  1
  Cd  Cd53  1  0.66822877  0.83278628  0.84210078  1
  Cd  Cd54  1  0.16727697  0.00092942  0.16687967  1
  Cd  Cd55  1  0.16619829  0.99923139  0.50753369  1
  Cd  Cd56  1  0.16542265  0.99990300  0.83331067  1
  Cd  Cd57  1  0.16963175  0.33777017  0.17018895  1
  Cd  Cd58  1  0.16663512  0.33258845  0.50652406  1
  Cd  Cd59  1  0.16595509  0.33299347  0.83206877  1
  Cd  Cd60  1  0.16605053  0.66708054  0.16566228  1
  Cd  Cd61  1  0.16610959  0.66525638  0.49993990  1
  Cd  Cd62  1  0.16056691  0.67000801  0.82810777  1
  Cd  Cd63  1  0.49822241  0.99631532  0.16883127  1
  Cd  Cd64  1  0.50057068  0.00036993  0.49875074  1
  Cd  Cd65  1  0.50474821  0.00500304  0.83806637  1
  Cd  Cd66  1  0.49810523  0.32885854  0.16263793  1
  Cd  Cd67  1  0.50042148  0.33331425  0.50005853  1
  Cd  Cd68  1  0.50389891  0.33791751  0.83882279  1
  Cd  Cd69  1  0.50456809  0.66140506  0.16217161  1
  Cd  Cd70  1  0.50027078  0.66598559  0.49971959  1
  Cd  Cd71  1  0.50888869  0.66585590  0.83441398  1
  Cd  Cd72  1  0.83234274  0.00032450  0.15806407  1
  Cd  Cd73  1  0.83437231  0.00066808  0.49996223  1
  Cd  Cd74  1  0.82943993  0.99394244  0.83679232  1
  Cd  Cd75  1  0.82769189  0.33041098  0.17023922  1
  Cd  Cd76  1  0.83393692  0.34093069  0.49954706  1
  Cd  Cd77  1  0.83163493  0.34071931  0.83439866  1
  Cd  Cd78  1  0.83630003  0.66223303  0.16154616  1
  Cd  Cd79  1  0.83431455  0.67357884  0.50182392  1
  Cd  Cd80  1  0.83585730  0.66922840  0.83829310  1
  Cd  Cd81  1  0.16726765  0.16815059  0.00133788  1
  Cd  Cd82  1  0.16736416  0.16615552  0.33501903  1
  Cd  Cd83  1  0.16610263  0.16723750  0.65979258  1
  Cd  Cd84  1  0.16571943  0.50116773  0.99893534  1
  Cd  Cd85  1  0.17079081  0.49450548  0.32963327  1
  Cd  Cd86  1  0.16963082  0.49658979  0.66327591  1
  Cd  Cd87  1  0.16628877  0.83282350  0.00012373  1
  Cd  Cd88  1  0.16545007  0.83351154  0.33386057  1
  Cd  Cd89  1  0.15759070  0.83321468  0.66719726  1
  Cd  Cd90  1  0.50924525  0.16626129  0.00121088  1
  Cd  Cd91  1  0.49633961  0.17194804  0.32830272  1
  Cd  Cd92  1  0.49976657  0.16876882  0.66766279  1
  Cd  Cd93  1  0.50387285  0.49532695  0.00386289  1
  Cd  Cd94  1  0.50082498  0.49885857  0.33220450  1
  Cd  Cd95  1  0.50435711  0.50491787  0.67151266  1
  Cd  Cd96  1  0.50530689  0.82923421  0.99538316  1
  Cd  Cd97  1  0.49681125  0.83640620  0.32856201  1
  Cd  Cd98  1  0.50067195  0.83440664  0.66751675  1
  Cd  Cd99  1  0.82821986  0.16384310  0.00371760  1
  Cd  Cd100  1  0.82964599  0.17111806  0.32839081  1
  Cd  Cd101  1  0.83350101  0.16671517  0.66786818  1
  Cd  Cd102  1  0.83806374  0.49951645  0.99984350  1
  Cd  Cd103  1  0.82868493  0.49707833  0.33663184  1
  Cd  Cd104  1  0.83380304  0.49383282  0.66730470  1
  Cd  Cd105  1  0.83620849  0.83623900  0.99545847  1
  Cd  Cd106  1  0.82963272  0.82938329  0.33645911  1
  Cd  Cd107  1  0.83687547  0.82859916  0.66393538  1
  Se  Se108  1  0.08007772  0.75077773  0.74876276  1
  Se  Se109  1  0.42059211  0.41539235  0.08472092  1
  Se  Se110  1  0.74790942  0.08336137  0.08255818  1
  Se  Se111  1  0.75078888  0.41478101  0.41600508  1
  Se  Se112  1  0.75031029  0.41861235  0.75168339  1
  Se  Se113  1  0.75223403  0.74918741  0.41844206  1
  Se  Se114  1  0.08433562  0.25151700  0.58311798  1
  Se  Se115  1  0.08338701  0.91547145  0.58435112  1
  Se  Se116  1  0.41674272  0.25302034  0.24789655  1
  Se  Se117  1  0.41747790  0.91759975  0.24967646  1
  Se  Se118  1  0.74768333  0.24996517  0.24811943  1
  Se  Se119  1  0.74972172  0.91647682  0.91954025  1
  Se  Se120  1  0.24721457  0.08347654  0.58351392  1
  Se  Se121  1  0.25288403  0.41525226  0.24886576  1
  Se  Se122  1  0.24841832  0.41553752  0.58355378  1
  Se  Se123  1  0.58613838  0.08331691  0.91983145  1
  Se  Se124  1  0.58400884  0.41857103  0.91806691  1
  Se  Se125  1  0.58576245  0.74835756  0.91652873  1
  Se  Se126  1  0.91531231  0.41578713  0.58414447  1
  Se  Se127  1  0.91455712  0.41813456  0.91627287  1
  Se  Se128  1  0.91789848  0.75048470  0.58379795  1
  Se  Se129  1  0.91581746  0.75099174  0.91770318  1
  Se  Se130  1  0.58422621  0.25050962  0.08318973  1
  Se  Se131  1  0.58280159  0.58193684  0.08031606  1
  Se  Se132  1  0.58576587  0.58169975  0.75373760  1
  Se  Se133  1  0.91533106  0.58287912  0.08015060  1
  Se  Se134  1  0.91260377  0.91657206  0.08113577  1
  Te  Te135  1  0.08207849  0.08254508  0.08268362  1
  Te  Te136  1  0.08340108  0.08293909  0.42019532  1
  Te  Te137  1  0.08325131  0.08397307  0.74683155  1
  Te  Te138  1  0.08113713  0.41733545  0.08323110  1
  Te  Te139  1  0.08430316  0.41688326  0.41958922  1
  Te  Te140  1  0.08165289  0.41585541  0.74755944  1
  Te  Te141  1  0.07932285  0.74958735  0.08250202  1
  Te  Te142  1  0.08157969  0.75067539  0.41917796  1
  Te  Te143  1  0.41963288  0.08477208  0.08434148  1
  Te  Te144  1  0.41646231  0.08430944  0.41467905  1
  Te  Te145  1  0.41683550  0.08298891  0.75034835  1
  Te  Te146  1  0.41462458  0.41535528  0.41531063  1
  Te  Te147  1  0.41843285  0.41769620  0.75010009  1
  Te  Te148  1  0.41936376  0.75012526  0.08316341  1
  Te  Te149  1  0.41706408  0.75078042  0.41558610  1
  Te  Te150  1  0.42005163  0.74833367  0.75176810  1
  Te  Te151  1  0.75060331  0.08506081  0.41547051  1
  Te  Te152  1  0.74948758  0.08245902  0.75226026  1
  Te  Te153  1  0.74837208  0.41715841  0.08205516  1
  Te  Te154  1  0.75148280  0.74914622  0.07913366  1
  Te  Te155  1  0.74992820  0.74978448  0.75244063  1
  Te  Te156  1  0.08464032  0.25111778  0.24994024  1
  Te  Te157  1  0.08126406  0.25077252  0.91711490  1
  Te  Te158  1  0.08335767  0.58125756  0.24980664  1
  Te  Te159  1  0.08122540  0.58309628  0.58497987  1
  Te  Te160  1  0.07940470  0.58493245  0.91590888  1
  Te  Te161  1  0.08144546  0.91699233  0.24869415  1
  Te  Te162  1  0.08051211  0.91450234  0.91592106  1
  Te  Te163  1  0.41409312  0.24989344  0.58266616  1
  Te  Te164  1  0.42075465  0.25061161  0.91968752  1
  Te  Te165  1  0.41712994  0.58061317  0.24717340  1
  Te  Te166  1  0.41622459  0.58157683  0.58340350  1
  Te  Te167  1  0.42201510  0.58193618  0.91864871  1
  Te  Te168  1  0.41589455  0.91852290  0.58381263  1
  Te  Te169  1  0.41934981  0.91707041  0.91686759  1
  Te  Te170  1  0.75218595  0.25335092  0.58306672  1
  Te  Te171  1  0.74790809  0.25183540  0.91776313  1
  Te  Te172  1  0.74948076  0.58343690  0.24933693  1
  Te  Te173  1  0.75155855  0.58246043  0.58364504  1
  Te  Te174  1  0.74887243  0.58182156  0.91704800  1
  Te  Te175  1  0.75166856  0.91701314  0.24863337  1
  Te  Te176  1  0.75105095  0.91426192  0.58255363  1
  Te  Te177  1  0.25263679  0.08416328  0.25014844  1
  Te  Te178  1  0.25002570  0.08381603  0.91670448  1
  Te  Te179  1  0.25148363  0.41611651  0.91759229  1
  Te  Te180  1  0.25100274  0.75093776  0.24942871  1
  Te  Te181  1  0.24692022  0.75083199  0.58531004  1
  Te  Te182  1  0.24875512  0.74855555  0.91449089  1
  Te  Te183  1  0.58289144  0.08634390  0.24677770  1
  Te  Te184  1  0.58369930  0.08373138  0.58433051  1
  Te  Te185  1  0.58373201  0.41412715  0.24680452  1
  Te  Te186  1  0.58510155  0.41864884  0.58524228  1
  Te  Te187  1  0.58367603  0.74893654  0.24923957  1
  Te  Te188  1  0.58557907  0.74837561  0.58428314  1
  Te  Te189  1  0.91402320  0.08340430  0.24777567  1
  Te  Te190  1  0.91892126  0.08399938  0.58384958  1
  Te  Te191  1  0.91385089  0.08125392  0.91788302  1
  Te  Te192  1  0.91421035  0.41744114  0.24967301  1
  Te  Te193  1  0.91488871  0.74922091  0.24830047  1
  Te  Te194  1  0.25221803  0.25262148  0.08531891  1
  Te  Te195  1  0.25042505  0.25187268  0.41757114  1
  Te  Te196  1  0.24945704  0.25027717  0.74651156  1
  Te  Te197  1  0.25175481  0.58050892  0.08456426  1
  Te  Te198  1  0.25018630  0.58053743  0.41634005  1
  Te  Te199  1  0.24838547  0.58349757  0.75006960  1
  Te  Te200  1  0.25185119  0.91607782  0.08443945  1
  Te  Te201  1  0.24952396  0.91843579  0.41776842  1
  Te  Te202  1  0.24794643  0.91597408  0.74773152  1
  Te  Te203  1  0.58457470  0.25213586  0.41404176  1
  Te  Te204  1  0.58475058  0.25206470  0.75283179  1
  Te  Te205  1  0.58666715  0.58265616  0.41608650  1
  Te  Te206  1  0.58501907  0.91769534  0.08032090  1
  Te  Te207  1  0.58406141  0.91495260  0.41506310  1
  Te  Te208  1  0.58511235  0.91634725  0.75471757  1
  Te  Te209  1  0.91357455  0.25079656  0.08302270  1
  Te  Te210  1  0.91494679  0.25183701  0.41740908  1
  Te  Te211  1  0.91544360  0.25419647  0.75000160  1
  Te  Te212  1  0.91376712  0.58335228  0.41885850  1
  Te  Te213  1  0.91569842  0.58330802  0.75008776  1
  Te  Te214  1  0.91704433  0.91382975  0.41827030  1
  Te  Te215  1  0.91767022  0.91307553  0.75069915  1
  O  O216  1  0.49996407  0.50034065  0.49987035  1
  As  As217  1  0.63249356  0.29902243  0.56528069  1
  O  O218  1  0.69982363  0.69947251  0.56700749  1
